
---------- Begin Simulation Statistics ----------
sim_seconds                                  0.088273                       # Number of seconds simulated
sim_ticks                                 88272824000                       # Number of ticks simulated
final_tick                                88272824000                       # Number of ticks from beginning of simulation (restored from checkpoints and never reset)
sim_freq                                 1000000000000                       # Frequency of simulated ticks
host_inst_rate                                 838809                       # Simulator instruction rate (inst/s)
host_op_rate                                  1381114                       # Simulator op (including micro ops) rate (op/s)
host_tick_rate                             1660561660                       # Simulator tick rate (ticks/s)
host_mem_usage                                 661912                       # Number of bytes of host memory used
host_seconds                                    53.16                       # Real time elapsed on the host
sim_insts                                    44589714                       # Number of instructions simulated
sim_ops                                      73417832                       # Number of ops (including micro ops) simulated
system.voltage_domain.voltage                       1                       # Voltage in Volts
system.clk_domain.clock                          1000                       # Clock period in ticks
system.mem_ctrls.pwrStateResidencyTicks::UNDEFINED  88272824000                       # Cumulative time (in ticks) in various power states
system.mem_ctrls.bytes_read::cpu.inst           22784                       # Number of bytes read from this memory
system.mem_ctrls.bytes_read::cpu.data          450304                       # Number of bytes read from this memory
system.mem_ctrls.bytes_read::total             473088                       # Number of bytes read from this memory
system.mem_ctrls.bytes_inst_read::cpu.inst        22784                       # Number of instructions bytes read from this memory
system.mem_ctrls.bytes_inst_read::total         22784                       # Number of instructions bytes read from this memory
system.mem_ctrls.bytes_written::writebacks        52032                       # Number of bytes written to this memory
system.mem_ctrls.bytes_written::total           52032                       # Number of bytes written to this memory
system.mem_ctrls.num_reads::cpu.inst              356                       # Number of read requests responded to by this memory
system.mem_ctrls.num_reads::cpu.data             7036                       # Number of read requests responded to by this memory
system.mem_ctrls.num_reads::total                7392                       # Number of read requests responded to by this memory
system.mem_ctrls.num_writes::writebacks           813                       # Number of write requests responded to by this memory
system.mem_ctrls.num_writes::total                813                       # Number of write requests responded to by this memory
system.mem_ctrls.bw_read::cpu.inst             258109                       # Total read bandwidth from this memory (bytes/s)
system.mem_ctrls.bw_read::cpu.data            5101276                       # Total read bandwidth from this memory (bytes/s)
system.mem_ctrls.bw_read::total               5359384                       # Total read bandwidth from this memory (bytes/s)
system.mem_ctrls.bw_inst_read::cpu.inst        258109                       # Instruction read bandwidth from this memory (bytes/s)
system.mem_ctrls.bw_inst_read::total           258109                       # Instruction read bandwidth from this memory (bytes/s)
system.mem_ctrls.bw_write::writebacks          589445                       # Write bandwidth from this memory (bytes/s)
system.mem_ctrls.bw_write::total               589445                       # Write bandwidth from this memory (bytes/s)
system.mem_ctrls.bw_total::writebacks          589445                       # Total bandwidth to/from this memory (bytes/s)
system.mem_ctrls.bw_total::cpu.inst            258109                       # Total bandwidth to/from this memory (bytes/s)
system.mem_ctrls.bw_total::cpu.data           5101276                       # Total bandwidth to/from this memory (bytes/s)
system.mem_ctrls.bw_total::total              5948830                       # Total bandwidth to/from this memory (bytes/s)
system.pwrStateResidencyTicks::UNDEFINED  88272824000                       # Cumulative time (in ticks) in various power states
system.cpu_voltage_domain.voltage                   1                       # Voltage in Volts
system.cpu_clk_domain.clock                       500                       # Clock period in ticks
system.cpu.dtb.walker.pwrStateResidencyTicks::UNDEFINED  88272824000                       # Cumulative time (in ticks) in various power states
system.cpu.dtb.rdAccesses                    20877741                       # TLB accesses on read requests
system.cpu.dtb.wrAccesses                     5816541                       # TLB accesses on write requests
system.cpu.dtb.rdMisses                           166                       # TLB misses on read requests
system.cpu.dtb.wrMisses                           106                       # TLB misses on write requests
system.cpu.apic_clk_domain.clock                 8000                       # Clock period in ticks
system.cpu.interrupts.pwrStateResidencyTicks::UNDEFINED  88272824000                       # Cumulative time (in ticks) in various power states
system.cpu.itb.walker.pwrStateResidencyTicks::UNDEFINED  88272824000                       # Cumulative time (in ticks) in various power states
system.cpu.itb.rdAccesses                           0                       # TLB accesses on read requests
system.cpu.itb.wrAccesses                    59916907                       # TLB accesses on write requests
system.cpu.itb.rdMisses                             0                       # TLB misses on read requests
system.cpu.itb.wrMisses                            36                       # TLB misses on write requests
system.cpu.workload.numSyscalls                     9                       # Number of system calls
system.cpu.pwrStateResidencyTicks::ON     88272824000                       # Cumulative time (in ticks) in various power states
system.cpu.numCycles                        176545648                       # number of cpu cycles simulated
system.cpu.numWorkItemsStarted                      0                       # number of work items this cpu started
system.cpu.numWorkItemsCompleted                    0                       # number of work items this cpu completed
system.cpu.committedInsts                    44589714                       # Number of instructions committed
system.cpu.committedOps                      73417832                       # Number of ops (including micro ops) committed
system.cpu.num_int_alu_accesses              72895910                       # Number of integer alu accesses
system.cpu.num_fp_alu_accesses                   1959                       # Number of float alu accesses
system.cpu.num_vec_alu_accesses                     0                       # Number of vector alu accesses
system.cpu.num_func_calls                      944900                       # number of times a function call or return occured
system.cpu.num_conditional_control_insts      4232451                       # number of instructions that are conditional controls
system.cpu.num_int_insts                     72895910                       # number of integer instructions
system.cpu.num_fp_insts                          1959                       # number of float instructions
system.cpu.num_vec_insts                            0                       # number of vector instructions
system.cpu.num_int_register_reads           163691543                       # number of times the integer registers were read
system.cpu.num_int_register_writes           63686385                       # number of times the integer registers were written
system.cpu.num_fp_register_reads                 3779                       # number of times the floating registers were read
system.cpu.num_fp_register_writes                1484                       # number of times the floating registers were written
system.cpu.num_vec_register_reads                   0                       # number of times the vector registers were read
system.cpu.num_vec_register_writes                  0                       # number of times the vector registers were written
system.cpu.num_cc_register_reads             27636559                       # number of times the CC registers were read
system.cpu.num_cc_register_writes            24933078                       # number of times the CC registers were written
system.cpu.num_mem_refs                      26694277                       # number of memory refs
system.cpu.num_load_insts                    20877737                       # Number of load instructions
system.cpu.num_store_insts                    5816540                       # Number of store instructions
system.cpu.num_idle_cycles                          0                       # Number of idle cycles
system.cpu.num_busy_cycles                  176545648                       # Number of busy cycles
system.cpu.not_idle_fraction                        1                       # Percentage of non-idle cycles
system.cpu.idle_fraction                            0                       # Percentage of idle cycles
system.cpu.Branches                           5574735                       # Number of branches fetched
system.cpu.op_class::No_OpClass                175844      0.24%      0.24% # Class of executed instruction
system.cpu.op_class::IntAlu                  45543753     62.03%     62.27% # Class of executed instruction
system.cpu.op_class::IntMult                        4      0.00%     62.27% # Class of executed instruction
system.cpu.op_class::IntDiv                   1002994      1.37%     63.64% # Class of executed instruction
system.cpu.op_class::FloatAdd                      10      0.00%     63.64% # Class of executed instruction
system.cpu.op_class::FloatCmp                       0      0.00%     63.64% # Class of executed instruction
system.cpu.op_class::FloatCvt                       0      0.00%     63.64% # Class of executed instruction
system.cpu.op_class::FloatMult                      0      0.00%     63.64% # Class of executed instruction
system.cpu.op_class::FloatMultAcc                   0      0.00%     63.64% # Class of executed instruction
system.cpu.op_class::FloatDiv                       0      0.00%     63.64% # Class of executed instruction
system.cpu.op_class::FloatMisc                      0      0.00%     63.64% # Class of executed instruction
system.cpu.op_class::FloatSqrt                      0      0.00%     63.64% # Class of executed instruction
system.cpu.op_class::SimdAdd                      374      0.00%     63.64% # Class of executed instruction
system.cpu.op_class::SimdAddAcc                     0      0.00%     63.64% # Class of executed instruction
system.cpu.op_class::SimdAlu                       68      0.00%     63.64% # Class of executed instruction
system.cpu.op_class::SimdCmp                        0      0.00%     63.64% # Class of executed instruction
system.cpu.op_class::SimdCvt                      108      0.00%     63.64% # Class of executed instruction
system.cpu.op_class::SimdMisc                     214      0.00%     63.64% # Class of executed instruction
system.cpu.op_class::SimdMult                       0      0.00%     63.64% # Class of executed instruction
system.cpu.op_class::SimdMultAcc                    0      0.00%     63.64% # Class of executed instruction
system.cpu.op_class::SimdShift                    186      0.00%     63.64% # Class of executed instruction
system.cpu.op_class::SimdShiftAcc                   0      0.00%     63.64% # Class of executed instruction
system.cpu.op_class::SimdSqrt                       0      0.00%     63.64% # Class of executed instruction
system.cpu.op_class::SimdFloatAdd                   0      0.00%     63.64% # Class of executed instruction
system.cpu.op_class::SimdFloatAlu                   0      0.00%     63.64% # Class of executed instruction
system.cpu.op_class::SimdFloatCmp                   0      0.00%     63.64% # Class of executed instruction
system.cpu.op_class::SimdFloatCvt                   0      0.00%     63.64% # Class of executed instruction
system.cpu.op_class::SimdFloatDiv                   0      0.00%     63.64% # Class of executed instruction
system.cpu.op_class::SimdFloatMisc                  0      0.00%     63.64% # Class of executed instruction
system.cpu.op_class::SimdFloatMult                  0      0.00%     63.64% # Class of executed instruction
system.cpu.op_class::SimdFloatMultAcc               0      0.00%     63.64% # Class of executed instruction
system.cpu.op_class::SimdFloatSqrt                  0      0.00%     63.64% # Class of executed instruction
system.cpu.op_class::MemRead                 20877677     28.44%     92.08% # Class of executed instruction
system.cpu.op_class::MemWrite                 5816113      7.92%    100.00% # Class of executed instruction
system.cpu.op_class::FloatMemRead                  60      0.00%    100.00% # Class of executed instruction
system.cpu.op_class::FloatMemWrite                427      0.00%    100.00% # Class of executed instruction
system.cpu.op_class::IprAccess                      0      0.00%    100.00% # Class of executed instruction
system.cpu.op_class::InstPrefetch                   0      0.00%    100.00% # Class of executed instruction
system.cpu.op_class::total                   73417832                       # Class of executed instruction
system.cpu.dcache.tags.pwrStateResidencyTicks::UNDEFINED  88272824000                       # Cumulative time (in ticks) in various power states
system.cpu.dcache.tags.tagsinuse          1014.127159                       # Cycle average of tags in use
system.cpu.dcache.tags.total_refs            26694282                       # Total number of references to valid blocks.
system.cpu.dcache.tags.sampled_refs             36896                       # Sample count of references to valid blocks.
system.cpu.dcache.tags.avg_refs            723.500705                       # Average number of references to valid blocks.
system.cpu.dcache.tags.warmup_cycle            759000                       # Cycle when the warmup percentage was hit.
system.cpu.dcache.tags.occ_blocks::cpu.data  1014.127159                       # Average occupied blocks per requestor
system.cpu.dcache.tags.occ_percent::cpu.data     0.990359                       # Average percentage of cache occupancy
system.cpu.dcache.tags.occ_percent::total     0.990359                       # Average percentage of cache occupancy
system.cpu.dcache.tags.occ_task_id_blocks::1024         1024                       # Occupied blocks per task id
system.cpu.dcache.tags.age_task_id_blocks_1024::0           13                       # Occupied blocks per task id
system.cpu.dcache.tags.age_task_id_blocks_1024::1           14                       # Occupied blocks per task id
system.cpu.dcache.tags.age_task_id_blocks_1024::2           33                       # Occupied blocks per task id
system.cpu.dcache.tags.age_task_id_blocks_1024::3          478                       # Occupied blocks per task id
system.cpu.dcache.tags.age_task_id_blocks_1024::4          486                       # Occupied blocks per task id
system.cpu.dcache.tags.occ_task_id_percent::1024            1                       # Percentage of cache occupancy per task id
system.cpu.dcache.tags.tag_accesses          53425460                       # Number of tag accesses
system.cpu.dcache.tags.data_accesses         53425460                       # Number of data accesses
system.cpu.dcache.pwrStateResidencyTicks::UNDEFINED  88272824000                       # Cumulative time (in ticks) in various power states
system.cpu.dcache.ReadReq_hits::cpu.data     20847437                       # number of ReadReq hits
system.cpu.dcache.ReadReq_hits::total        20847437                       # number of ReadReq hits
system.cpu.dcache.WriteReq_hits::cpu.data      5794638                       # number of WriteReq hits
system.cpu.dcache.WriteReq_hits::total        5794638                       # number of WriteReq hits
system.cpu.dcache.demand_hits::cpu.data      26642075                       # number of demand (read+write) hits
system.cpu.dcache.demand_hits::total         26642075                       # number of demand (read+write) hits
system.cpu.dcache.overall_hits::cpu.data     26642075                       # number of overall hits
system.cpu.dcache.overall_hits::total        26642075                       # number of overall hits
system.cpu.dcache.ReadReq_misses::cpu.data        30304                       # number of ReadReq misses
system.cpu.dcache.ReadReq_misses::total         30304                       # number of ReadReq misses
system.cpu.dcache.WriteReq_misses::cpu.data        21903                       # number of WriteReq misses
system.cpu.dcache.WriteReq_misses::total        21903                       # number of WriteReq misses
system.cpu.dcache.demand_misses::cpu.data        52207                       # number of demand (read+write) misses
system.cpu.dcache.demand_misses::total          52207                       # number of demand (read+write) misses
system.cpu.dcache.overall_misses::cpu.data        52207                       # number of overall misses
system.cpu.dcache.overall_misses::total         52207                       # number of overall misses
system.cpu.dcache.ReadReq_miss_latency::cpu.data    916953000                       # number of ReadReq miss cycles
system.cpu.dcache.ReadReq_miss_latency::total    916953000                       # number of ReadReq miss cycles
system.cpu.dcache.WriteReq_miss_latency::cpu.data    738550000                       # number of WriteReq miss cycles
system.cpu.dcache.WriteReq_miss_latency::total    738550000                       # number of WriteReq miss cycles
system.cpu.dcache.demand_miss_latency::cpu.data   1655503000                       # number of demand (read+write) miss cycles
system.cpu.dcache.demand_miss_latency::total   1655503000                       # number of demand (read+write) miss cycles
system.cpu.dcache.overall_miss_latency::cpu.data   1655503000                       # number of overall miss cycles
system.cpu.dcache.overall_miss_latency::total   1655503000                       # number of overall miss cycles
system.cpu.dcache.ReadReq_accesses::cpu.data     20877741                       # number of ReadReq accesses(hits+misses)
system.cpu.dcache.ReadReq_accesses::total     20877741                       # number of ReadReq accesses(hits+misses)
system.cpu.dcache.WriteReq_accesses::cpu.data      5816541                       # number of WriteReq accesses(hits+misses)
system.cpu.dcache.WriteReq_accesses::total      5816541                       # number of WriteReq accesses(hits+misses)
system.cpu.dcache.demand_accesses::cpu.data     26694282                       # number of demand (read+write) accesses
system.cpu.dcache.demand_accesses::total     26694282                       # number of demand (read+write) accesses
system.cpu.dcache.overall_accesses::cpu.data     26694282                       # number of overall (read+write) accesses
system.cpu.dcache.overall_accesses::total     26694282                       # number of overall (read+write) accesses
system.cpu.dcache.ReadReq_miss_rate::cpu.data     0.001451                       # miss rate for ReadReq accesses
system.cpu.dcache.ReadReq_miss_rate::total     0.001451                       # miss rate for ReadReq accesses
system.cpu.dcache.WriteReq_miss_rate::cpu.data     0.003766                       # miss rate for WriteReq accesses
system.cpu.dcache.WriteReq_miss_rate::total     0.003766                       # miss rate for WriteReq accesses
system.cpu.dcache.demand_miss_rate::cpu.data     0.001956                       # miss rate for demand accesses
system.cpu.dcache.demand_miss_rate::total     0.001956                       # miss rate for demand accesses
system.cpu.dcache.overall_miss_rate::cpu.data     0.001956                       # miss rate for overall accesses
system.cpu.dcache.overall_miss_rate::total     0.001956                       # miss rate for overall accesses
system.cpu.dcache.ReadReq_avg_miss_latency::cpu.data 30258.480729                       # average ReadReq miss latency
system.cpu.dcache.ReadReq_avg_miss_latency::total 30258.480729                       # average ReadReq miss latency
system.cpu.dcache.WriteReq_avg_miss_latency::cpu.data 33719.125234                       # average WriteReq miss latency
system.cpu.dcache.WriteReq_avg_miss_latency::total 33719.125234                       # average WriteReq miss latency
system.cpu.dcache.demand_avg_miss_latency::cpu.data 31710.364511                       # average overall miss latency
system.cpu.dcache.demand_avg_miss_latency::total 31710.364511                       # average overall miss latency
system.cpu.dcache.overall_avg_miss_latency::cpu.data 31710.364511                       # average overall miss latency
system.cpu.dcache.overall_avg_miss_latency::total 31710.364511                       # average overall miss latency
system.cpu.dcache.blocked_cycles::no_mshrs            0                       # number of cycles access was blocked
system.cpu.dcache.blocked_cycles::no_targets            0                       # number of cycles access was blocked
system.cpu.dcache.blocked::no_mshrs                 0                       # number of cycles access was blocked
system.cpu.dcache.blocked::no_targets               0                       # number of cycles access was blocked
system.cpu.dcache.avg_blocked_cycles::no_mshrs          nan                       # average number of cycles each access was blocked
system.cpu.dcache.avg_blocked_cycles::no_targets          nan                       # average number of cycles each access was blocked
system.cpu.dcache.writebacks::writebacks        34677                       # number of writebacks
system.cpu.dcache.writebacks::total             34677                       # number of writebacks
system.cpu.dcache.ReadReq_mshr_misses::cpu.data        30304                       # number of ReadReq MSHR misses
system.cpu.dcache.ReadReq_mshr_misses::total        30304                       # number of ReadReq MSHR misses
system.cpu.dcache.WriteReq_mshr_misses::cpu.data        21903                       # number of WriteReq MSHR misses
system.cpu.dcache.WriteReq_mshr_misses::total        21903                       # number of WriteReq MSHR misses
system.cpu.dcache.demand_mshr_misses::cpu.data        52207                       # number of demand (read+write) MSHR misses
system.cpu.dcache.demand_mshr_misses::total        52207                       # number of demand (read+write) MSHR misses
system.cpu.dcache.overall_mshr_misses::cpu.data        52207                       # number of overall MSHR misses
system.cpu.dcache.overall_mshr_misses::total        52207                       # number of overall MSHR misses
system.cpu.dcache.ReadReq_mshr_miss_latency::cpu.data    886649000                       # number of ReadReq MSHR miss cycles
system.cpu.dcache.ReadReq_mshr_miss_latency::total    886649000                       # number of ReadReq MSHR miss cycles
system.cpu.dcache.WriteReq_mshr_miss_latency::cpu.data    716647000                       # number of WriteReq MSHR miss cycles
system.cpu.dcache.WriteReq_mshr_miss_latency::total    716647000                       # number of WriteReq MSHR miss cycles
system.cpu.dcache.demand_mshr_miss_latency::cpu.data   1603296000                       # number of demand (read+write) MSHR miss cycles
system.cpu.dcache.demand_mshr_miss_latency::total   1603296000                       # number of demand (read+write) MSHR miss cycles
system.cpu.dcache.overall_mshr_miss_latency::cpu.data   1603296000                       # number of overall MSHR miss cycles
system.cpu.dcache.overall_mshr_miss_latency::total   1603296000                       # number of overall MSHR miss cycles
system.cpu.dcache.ReadReq_mshr_miss_rate::cpu.data     0.001451                       # mshr miss rate for ReadReq accesses
system.cpu.dcache.ReadReq_mshr_miss_rate::total     0.001451                       # mshr miss rate for ReadReq accesses
system.cpu.dcache.WriteReq_mshr_miss_rate::cpu.data     0.003766                       # mshr miss rate for WriteReq accesses
system.cpu.dcache.WriteReq_mshr_miss_rate::total     0.003766                       # mshr miss rate for WriteReq accesses
system.cpu.dcache.demand_mshr_miss_rate::cpu.data     0.001956                       # mshr miss rate for demand accesses
system.cpu.dcache.demand_mshr_miss_rate::total     0.001956                       # mshr miss rate for demand accesses
system.cpu.dcache.overall_mshr_miss_rate::cpu.data     0.001956                       # mshr miss rate for overall accesses
system.cpu.dcache.overall_mshr_miss_rate::total     0.001956                       # mshr miss rate for overall accesses
system.cpu.dcache.ReadReq_avg_mshr_miss_latency::cpu.data 29258.480729                       # average ReadReq mshr miss latency
system.cpu.dcache.ReadReq_avg_mshr_miss_latency::total 29258.480729                       # average ReadReq mshr miss latency
system.cpu.dcache.WriteReq_avg_mshr_miss_latency::cpu.data 32719.125234                       # average WriteReq mshr miss latency
system.cpu.dcache.WriteReq_avg_mshr_miss_latency::total 32719.125234                       # average WriteReq mshr miss latency
system.cpu.dcache.demand_avg_mshr_miss_latency::cpu.data 30710.364511                       # average overall mshr miss latency
system.cpu.dcache.demand_avg_mshr_miss_latency::total 30710.364511                       # average overall mshr miss latency
system.cpu.dcache.overall_avg_mshr_miss_latency::cpu.data 30710.364511                       # average overall mshr miss latency
system.cpu.dcache.overall_avg_mshr_miss_latency::total 30710.364511                       # average overall mshr miss latency
system.cpu.dcache.replacements                  35872                       # number of replacements
system.cpu.dtb_walker_cache.tags.pwrStateResidencyTicks::UNDEFINED  88272824000                       # Cumulative time (in ticks) in various power states
system.cpu.dtb_walker_cache.tags.tagsinuse            0                       # Cycle average of tags in use
system.cpu.dtb_walker_cache.tags.total_refs            0                       # Total number of references to valid blocks.
system.cpu.dtb_walker_cache.tags.sampled_refs            0                       # Sample count of references to valid blocks.
system.cpu.dtb_walker_cache.tags.avg_refs          nan                       # Average number of references to valid blocks.
system.cpu.dtb_walker_cache.tags.warmup_cycle            0                       # Cycle when the warmup percentage was hit.
system.cpu.dtb_walker_cache.tags.tag_accesses            0                       # Number of tag accesses
system.cpu.dtb_walker_cache.tags.data_accesses            0                       # Number of data accesses
system.cpu.dtb_walker_cache.pwrStateResidencyTicks::UNDEFINED  88272824000                       # Cumulative time (in ticks) in various power states
system.cpu.dtb_walker_cache.blocked_cycles::no_mshrs            0                       # number of cycles access was blocked
system.cpu.dtb_walker_cache.blocked_cycles::no_targets            0                       # number of cycles access was blocked
system.cpu.dtb_walker_cache.blocked::no_mshrs            0                       # number of cycles access was blocked
system.cpu.dtb_walker_cache.blocked::no_targets            0                       # number of cycles access was blocked
system.cpu.dtb_walker_cache.avg_blocked_cycles::no_mshrs          nan                       # average number of cycles each access was blocked
system.cpu.dtb_walker_cache.avg_blocked_cycles::no_targets          nan                       # average number of cycles each access was blocked
system.cpu.dtb_walker_cache.replacements            0                       # number of replacements
system.cpu.icache.tags.pwrStateResidencyTicks::UNDEFINED  88272824000                       # Cumulative time (in ticks) in various power states
system.cpu.icache.tags.tagsinuse           281.271936                       # Cycle average of tags in use
system.cpu.icache.tags.total_refs            59916907                       # Total number of references to valid blocks.
system.cpu.icache.tags.sampled_refs               356                       # Sample count of references to valid blocks.
system.cpu.icache.tags.avg_refs          168305.918539                       # Average number of references to valid blocks.
system.cpu.icache.tags.warmup_cycle            439000                       # Cycle when the warmup percentage was hit.
system.cpu.icache.tags.occ_blocks::cpu.inst   281.271936                       # Average occupied blocks per requestor
system.cpu.icache.tags.occ_percent::cpu.inst     0.549359                       # Average percentage of cache occupancy
system.cpu.icache.tags.occ_percent::total     0.549359                       # Average percentage of cache occupancy
system.cpu.icache.tags.occ_task_id_blocks::1024          310                       # Occupied blocks per task id
system.cpu.icache.tags.age_task_id_blocks_1024::0           25                       # Occupied blocks per task id
system.cpu.icache.tags.age_task_id_blocks_1024::1           13                       # Occupied blocks per task id
system.cpu.icache.tags.age_task_id_blocks_1024::4          272                       # Occupied blocks per task id
system.cpu.icache.tags.occ_task_id_percent::1024     0.605469                       # Percentage of cache occupancy per task id
system.cpu.icache.tags.tag_accesses         119834170                       # Number of tag accesses
system.cpu.icache.tags.data_accesses        119834170                       # Number of data accesses
system.cpu.icache.pwrStateResidencyTicks::UNDEFINED  88272824000                       # Cumulative time (in ticks) in various power states
system.cpu.icache.ReadReq_hits::cpu.inst     59916551                       # number of ReadReq hits
system.cpu.icache.ReadReq_hits::total        59916551                       # number of ReadReq hits
system.cpu.icache.demand_hits::cpu.inst      59916551                       # number of demand (read+write) hits
system.cpu.icache.demand_hits::total         59916551                       # number of demand (read+write) hits
system.cpu.icache.overall_hits::cpu.inst     59916551                       # number of overall hits
system.cpu.icache.overall_hits::total        59916551                       # number of overall hits
system.cpu.icache.ReadReq_misses::cpu.inst          356                       # number of ReadReq misses
system.cpu.icache.ReadReq_misses::total           356                       # number of ReadReq misses
system.cpu.icache.demand_misses::cpu.inst          356                       # number of demand (read+write) misses
system.cpu.icache.demand_misses::total            356                       # number of demand (read+write) misses
system.cpu.icache.overall_misses::cpu.inst          356                       # number of overall misses
system.cpu.icache.overall_misses::total           356                       # number of overall misses
system.cpu.icache.ReadReq_miss_latency::cpu.inst     58699000                       # number of ReadReq miss cycles
system.cpu.icache.ReadReq_miss_latency::total     58699000                       # number of ReadReq miss cycles
system.cpu.icache.demand_miss_latency::cpu.inst     58699000                       # number of demand (read+write) miss cycles
system.cpu.icache.demand_miss_latency::total     58699000                       # number of demand (read+write) miss cycles
system.cpu.icache.overall_miss_latency::cpu.inst     58699000                       # number of overall miss cycles
system.cpu.icache.overall_miss_latency::total     58699000                       # number of overall miss cycles
system.cpu.icache.ReadReq_accesses::cpu.inst     59916907                       # number of ReadReq accesses(hits+misses)
system.cpu.icache.ReadReq_accesses::total     59916907                       # number of ReadReq accesses(hits+misses)
system.cpu.icache.demand_accesses::cpu.inst     59916907                       # number of demand (read+write) accesses
system.cpu.icache.demand_accesses::total     59916907                       # number of demand (read+write) accesses
system.cpu.icache.overall_accesses::cpu.inst     59916907                       # number of overall (read+write) accesses
system.cpu.icache.overall_accesses::total     59916907                       # number of overall (read+write) accesses
system.cpu.icache.ReadReq_miss_rate::cpu.inst     0.000006                       # miss rate for ReadReq accesses
system.cpu.icache.ReadReq_miss_rate::total     0.000006                       # miss rate for ReadReq accesses
system.cpu.icache.demand_miss_rate::cpu.inst     0.000006                       # miss rate for demand accesses
system.cpu.icache.demand_miss_rate::total     0.000006                       # miss rate for demand accesses
system.cpu.icache.overall_miss_rate::cpu.inst     0.000006                       # miss rate for overall accesses
system.cpu.icache.overall_miss_rate::total     0.000006                       # miss rate for overall accesses
system.cpu.icache.ReadReq_avg_miss_latency::cpu.inst 164884.831461                       # average ReadReq miss latency
system.cpu.icache.ReadReq_avg_miss_latency::total 164884.831461                       # average ReadReq miss latency
system.cpu.icache.demand_avg_miss_latency::cpu.inst 164884.831461                       # average overall miss latency
system.cpu.icache.demand_avg_miss_latency::total 164884.831461                       # average overall miss latency
system.cpu.icache.overall_avg_miss_latency::cpu.inst 164884.831461                       # average overall miss latency
system.cpu.icache.overall_avg_miss_latency::total 164884.831461                       # average overall miss latency
system.cpu.icache.blocked_cycles::no_mshrs            0                       # number of cycles access was blocked
system.cpu.icache.blocked_cycles::no_targets            0                       # number of cycles access was blocked
system.cpu.icache.blocked::no_mshrs                 0                       # number of cycles access was blocked
system.cpu.icache.blocked::no_targets               0                       # number of cycles access was blocked
system.cpu.icache.avg_blocked_cycles::no_mshrs          nan                       # average number of cycles each access was blocked
system.cpu.icache.avg_blocked_cycles::no_targets          nan                       # average number of cycles each access was blocked
system.cpu.icache.writebacks::writebacks           46                       # number of writebacks
system.cpu.icache.writebacks::total                46                       # number of writebacks
system.cpu.icache.ReadReq_mshr_misses::cpu.inst          356                       # number of ReadReq MSHR misses
system.cpu.icache.ReadReq_mshr_misses::total          356                       # number of ReadReq MSHR misses
system.cpu.icache.demand_mshr_misses::cpu.inst          356                       # number of demand (read+write) MSHR misses
system.cpu.icache.demand_mshr_misses::total          356                       # number of demand (read+write) MSHR misses
system.cpu.icache.overall_mshr_misses::cpu.inst          356                       # number of overall MSHR misses
system.cpu.icache.overall_mshr_misses::total          356                       # number of overall MSHR misses
system.cpu.icache.ReadReq_mshr_miss_latency::cpu.inst     58343000                       # number of ReadReq MSHR miss cycles
system.cpu.icache.ReadReq_mshr_miss_latency::total     58343000                       # number of ReadReq MSHR miss cycles
system.cpu.icache.demand_mshr_miss_latency::cpu.inst     58343000                       # number of demand (read+write) MSHR miss cycles
system.cpu.icache.demand_mshr_miss_latency::total     58343000                       # number of demand (read+write) MSHR miss cycles
system.cpu.icache.overall_mshr_miss_latency::cpu.inst     58343000                       # number of overall MSHR miss cycles
system.cpu.icache.overall_mshr_miss_latency::total     58343000                       # number of overall MSHR miss cycles
system.cpu.icache.ReadReq_mshr_miss_rate::cpu.inst     0.000006                       # mshr miss rate for ReadReq accesses
system.cpu.icache.ReadReq_mshr_miss_rate::total     0.000006                       # mshr miss rate for ReadReq accesses
system.cpu.icache.demand_mshr_miss_rate::cpu.inst     0.000006                       # mshr miss rate for demand accesses
system.cpu.icache.demand_mshr_miss_rate::total     0.000006                       # mshr miss rate for demand accesses
system.cpu.icache.overall_mshr_miss_rate::cpu.inst     0.000006                       # mshr miss rate for overall accesses
system.cpu.icache.overall_mshr_miss_rate::total     0.000006                       # mshr miss rate for overall accesses
system.cpu.icache.ReadReq_avg_mshr_miss_latency::cpu.inst 163884.831461                       # average ReadReq mshr miss latency
system.cpu.icache.ReadReq_avg_mshr_miss_latency::total 163884.831461                       # average ReadReq mshr miss latency
system.cpu.icache.demand_avg_mshr_miss_latency::cpu.inst 163884.831461                       # average overall mshr miss latency
system.cpu.icache.demand_avg_mshr_miss_latency::total 163884.831461                       # average overall mshr miss latency
system.cpu.icache.overall_avg_mshr_miss_latency::cpu.inst 163884.831461                       # average overall mshr miss latency
system.cpu.icache.overall_avg_mshr_miss_latency::total 163884.831461                       # average overall mshr miss latency
system.cpu.icache.replacements                     46                       # number of replacements
system.cpu.itb_walker_cache.tags.pwrStateResidencyTicks::UNDEFINED  88272824000                       # Cumulative time (in ticks) in various power states
system.cpu.itb_walker_cache.tags.tagsinuse            0                       # Cycle average of tags in use
system.cpu.itb_walker_cache.tags.total_refs            0                       # Total number of references to valid blocks.
system.cpu.itb_walker_cache.tags.sampled_refs            0                       # Sample count of references to valid blocks.
system.cpu.itb_walker_cache.tags.avg_refs          nan                       # Average number of references to valid blocks.
system.cpu.itb_walker_cache.tags.warmup_cycle            0                       # Cycle when the warmup percentage was hit.
system.cpu.itb_walker_cache.tags.tag_accesses            0                       # Number of tag accesses
system.cpu.itb_walker_cache.tags.data_accesses            0                       # Number of data accesses
system.cpu.itb_walker_cache.pwrStateResidencyTicks::UNDEFINED  88272824000                       # Cumulative time (in ticks) in various power states
system.cpu.itb_walker_cache.blocked_cycles::no_mshrs            0                       # number of cycles access was blocked
system.cpu.itb_walker_cache.blocked_cycles::no_targets            0                       # number of cycles access was blocked
system.cpu.itb_walker_cache.blocked::no_mshrs            0                       # number of cycles access was blocked
system.cpu.itb_walker_cache.blocked::no_targets            0                       # number of cycles access was blocked
system.cpu.itb_walker_cache.avg_blocked_cycles::no_mshrs          nan                       # average number of cycles each access was blocked
system.cpu.itb_walker_cache.avg_blocked_cycles::no_targets          nan                       # average number of cycles each access was blocked
system.cpu.itb_walker_cache.replacements            0                       # number of replacements
system.l2.tags.pwrStateResidencyTicks::UNDEFINED  88272824000                       # Cumulative time (in ticks) in various power states
system.l2.tags.tagsinuse                  2018.190382                       # Cycle average of tags in use
system.l2.tags.total_refs                       88051                       # Total number of references to valid blocks.
system.l2.tags.sampled_refs                     33485                       # Sample count of references to valid blocks.
system.l2.tags.avg_refs                      2.629565                       # Average number of references to valid blocks.
system.l2.tags.warmup_cycle                    428500                       # Cycle when the warmup percentage was hit.
system.l2.tags.occ_blocks::writebacks      468.376264                       # Average occupied blocks per requestor
system.l2.tags.occ_blocks::cpu.inst         11.520653                       # Average occupied blocks per requestor
system.l2.tags.occ_blocks::cpu.data       1538.293465                       # Average occupied blocks per requestor
system.l2.tags.occ_percent::writebacks       0.228699                       # Average percentage of cache occupancy
system.l2.tags.occ_percent::cpu.inst         0.005625                       # Average percentage of cache occupancy
system.l2.tags.occ_percent::cpu.data         0.751120                       # Average percentage of cache occupancy
system.l2.tags.occ_percent::total            0.985445                       # Average percentage of cache occupancy
system.l2.tags.occ_task_id_blocks::1024          2048                       # Occupied blocks per task id
system.l2.tags.age_task_id_blocks_1024::0           57                       # Occupied blocks per task id
system.l2.tags.age_task_id_blocks_1024::1           34                       # Occupied blocks per task id
system.l2.tags.age_task_id_blocks_1024::2           33                       # Occupied blocks per task id
system.l2.tags.age_task_id_blocks_1024::3           59                       # Occupied blocks per task id
system.l2.tags.age_task_id_blocks_1024::4         1865                       # Occupied blocks per task id
system.l2.tags.occ_task_id_percent::1024            1                       # Percentage of cache occupancy per task id
system.l2.tags.tag_accesses                    741333                       # Number of tag accesses
system.l2.tags.data_accesses                   741333                       # Number of data accesses
system.l2.pwrStateResidencyTicks::UNDEFINED  88272824000                       # Cumulative time (in ticks) in various power states
system.l2.WritebackDirty_hits::writebacks        34677                       # number of WritebackDirty hits
system.l2.WritebackDirty_hits::total            34677                       # number of WritebackDirty hits
system.l2.WritebackClean_hits::writebacks           46                       # number of WritebackClean hits
system.l2.WritebackClean_hits::total               46                       # number of WritebackClean hits
system.l2.UpgradeReq_hits::cpu.data             15296                       # number of UpgradeReq hits
system.l2.UpgradeReq_hits::total                15296                       # number of UpgradeReq hits
system.l2.ReadExReq_hits::cpu.data                150                       # number of ReadExReq hits
system.l2.ReadExReq_hits::total                   150                       # number of ReadExReq hits
system.l2.ReadSharedReq_hits::cpu.data          13221                       # number of ReadSharedReq hits
system.l2.ReadSharedReq_hits::total             13221                       # number of ReadSharedReq hits
system.l2.demand_hits::cpu.data                 13371                       # number of demand (read+write) hits
system.l2.demand_hits::total                    13371                       # number of demand (read+write) hits
system.l2.overall_hits::cpu.data                13371                       # number of overall hits
system.l2.overall_hits::total                   13371                       # number of overall hits
system.l2.UpgradeReq_misses::cpu.data              15                       # number of UpgradeReq misses
system.l2.UpgradeReq_misses::total                 15                       # number of UpgradeReq misses
system.l2.ReadExReq_misses::cpu.data             6442                       # number of ReadExReq misses
system.l2.ReadExReq_misses::total                6442                       # number of ReadExReq misses
system.l2.ReadCleanReq_misses::cpu.inst           356                       # number of ReadCleanReq misses
system.l2.ReadCleanReq_misses::total              356                       # number of ReadCleanReq misses
system.l2.ReadSharedReq_misses::cpu.data        17083                       # number of ReadSharedReq misses
system.l2.ReadSharedReq_misses::total           17083                       # number of ReadSharedReq misses
system.l2.demand_misses::cpu.inst                 356                       # number of demand (read+write) misses
system.l2.demand_misses::cpu.data               23525                       # number of demand (read+write) misses
system.l2.demand_misses::total                  23881                       # number of demand (read+write) misses
system.l2.overall_misses::cpu.inst                356                       # number of overall misses
system.l2.overall_misses::cpu.data              23525                       # number of overall misses
system.l2.overall_misses::total                 23881                       # number of overall misses
system.l2.ReadExReq_miss_latency::cpu.data    521136000                       # number of ReadExReq miss cycles
system.l2.ReadExReq_miss_latency::total     521136000                       # number of ReadExReq miss cycles
system.l2.ReadCleanReq_miss_latency::cpu.inst     57807500                       # number of ReadCleanReq miss cycles
system.l2.ReadCleanReq_miss_latency::total     57807500                       # number of ReadCleanReq miss cycles
system.l2.ReadSharedReq_miss_latency::cpu.data    702372000                       # number of ReadSharedReq miss cycles
system.l2.ReadSharedReq_miss_latency::total    702372000                       # number of ReadSharedReq miss cycles
system.l2.demand_miss_latency::cpu.inst      57807500                       # number of demand (read+write) miss cycles
system.l2.demand_miss_latency::cpu.data    1223508000                       # number of demand (read+write) miss cycles
system.l2.demand_miss_latency::total       1281315500                       # number of demand (read+write) miss cycles
system.l2.overall_miss_latency::cpu.inst     57807500                       # number of overall miss cycles
system.l2.overall_miss_latency::cpu.data   1223508000                       # number of overall miss cycles
system.l2.overall_miss_latency::total      1281315500                       # number of overall miss cycles
system.l2.WritebackDirty_accesses::writebacks        34677                       # number of WritebackDirty accesses(hits+misses)
system.l2.WritebackDirty_accesses::total        34677                       # number of WritebackDirty accesses(hits+misses)
system.l2.WritebackClean_accesses::writebacks           46                       # number of WritebackClean accesses(hits+misses)
system.l2.WritebackClean_accesses::total           46                       # number of WritebackClean accesses(hits+misses)
system.l2.UpgradeReq_accesses::cpu.data         15311                       # number of UpgradeReq accesses(hits+misses)
system.l2.UpgradeReq_accesses::total            15311                       # number of UpgradeReq accesses(hits+misses)
system.l2.ReadExReq_accesses::cpu.data           6592                       # number of ReadExReq accesses(hits+misses)
system.l2.ReadExReq_accesses::total              6592                       # number of ReadExReq accesses(hits+misses)
system.l2.ReadCleanReq_accesses::cpu.inst          356                       # number of ReadCleanReq accesses(hits+misses)
system.l2.ReadCleanReq_accesses::total            356                       # number of ReadCleanReq accesses(hits+misses)
system.l2.ReadSharedReq_accesses::cpu.data        30304                       # number of ReadSharedReq accesses(hits+misses)
system.l2.ReadSharedReq_accesses::total         30304                       # number of ReadSharedReq accesses(hits+misses)
system.l2.demand_accesses::cpu.inst               356                       # number of demand (read+write) accesses
system.l2.demand_accesses::cpu.data             36896                       # number of demand (read+write) accesses
system.l2.demand_accesses::total                37252                       # number of demand (read+write) accesses
system.l2.overall_accesses::cpu.inst              356                       # number of overall (read+write) accesses
system.l2.overall_accesses::cpu.data            36896                       # number of overall (read+write) accesses
system.l2.overall_accesses::total               37252                       # number of overall (read+write) accesses
system.l2.UpgradeReq_miss_rate::cpu.data     0.000980                       # miss rate for UpgradeReq accesses
system.l2.UpgradeReq_miss_rate::total        0.000980                       # miss rate for UpgradeReq accesses
system.l2.ReadExReq_miss_rate::cpu.data      0.977245                       # miss rate for ReadExReq accesses
system.l2.ReadExReq_miss_rate::total         0.977245                       # miss rate for ReadExReq accesses
system.l2.ReadCleanReq_miss_rate::cpu.inst            1                       # miss rate for ReadCleanReq accesses
system.l2.ReadCleanReq_miss_rate::total             1                       # miss rate for ReadCleanReq accesses
system.l2.ReadSharedReq_miss_rate::cpu.data     0.563721                       # miss rate for ReadSharedReq accesses
system.l2.ReadSharedReq_miss_rate::total     0.563721                       # miss rate for ReadSharedReq accesses
system.l2.demand_miss_rate::cpu.inst                1                       # miss rate for demand accesses
system.l2.demand_miss_rate::cpu.data         0.637603                       # miss rate for demand accesses
system.l2.demand_miss_rate::total            0.641066                       # miss rate for demand accesses
system.l2.overall_miss_rate::cpu.inst               1                       # miss rate for overall accesses
system.l2.overall_miss_rate::cpu.data        0.637603                       # miss rate for overall accesses
system.l2.overall_miss_rate::total           0.641066                       # miss rate for overall accesses
system.l2.ReadExReq_avg_miss_latency::cpu.data 80896.615958                       # average ReadExReq miss latency
system.l2.ReadExReq_avg_miss_latency::total 80896.615958                       # average ReadExReq miss latency
system.l2.ReadCleanReq_avg_miss_latency::cpu.inst 162380.617978                       # average ReadCleanReq miss latency
system.l2.ReadCleanReq_avg_miss_latency::total 162380.617978                       # average ReadCleanReq miss latency
system.l2.ReadSharedReq_avg_miss_latency::cpu.data 41115.260786                       # average ReadSharedReq miss latency
system.l2.ReadSharedReq_avg_miss_latency::total 41115.260786                       # average ReadSharedReq miss latency
system.l2.demand_avg_miss_latency::cpu.inst 162380.617978                       # average overall miss latency
system.l2.demand_avg_miss_latency::cpu.data 52008.841658                       # average overall miss latency
system.l2.demand_avg_miss_latency::total 53654.181148                       # average overall miss latency
system.l2.overall_avg_miss_latency::cpu.inst 162380.617978                       # average overall miss latency
system.l2.overall_avg_miss_latency::cpu.data 52008.841658                       # average overall miss latency
system.l2.overall_avg_miss_latency::total 53654.181148                       # average overall miss latency
system.l2.blocked_cycles::no_mshrs                  0                       # number of cycles access was blocked
system.l2.blocked_cycles::no_targets                0                       # number of cycles access was blocked
system.l2.blocked::no_mshrs                         0                       # number of cycles access was blocked
system.l2.blocked::no_targets                       0                       # number of cycles access was blocked
system.l2.avg_blocked_cycles::no_mshrs            nan                       # average number of cycles each access was blocked
system.l2.avg_blocked_cycles::no_targets          nan                       # average number of cycles each access was blocked
system.l2.writebacks::writebacks                21370                       # number of writebacks
system.l2.writebacks::total                     21370                       # number of writebacks
system.l2.CleanEvict_mshr_misses::writebacks          415                       # number of CleanEvict MSHR misses
system.l2.CleanEvict_mshr_misses::total           415                       # number of CleanEvict MSHR misses
system.l2.UpgradeReq_mshr_misses::cpu.data           15                       # number of UpgradeReq MSHR misses
system.l2.UpgradeReq_mshr_misses::total            15                       # number of UpgradeReq MSHR misses
system.l2.ReadExReq_mshr_misses::cpu.data         6442                       # number of ReadExReq MSHR misses
system.l2.ReadExReq_mshr_misses::total           6442                       # number of ReadExReq MSHR misses
system.l2.ReadCleanReq_mshr_misses::cpu.inst          356                       # number of ReadCleanReq MSHR misses
system.l2.ReadCleanReq_mshr_misses::total          356                       # number of ReadCleanReq MSHR misses
system.l2.ReadSharedReq_mshr_misses::cpu.data        17083                       # number of ReadSharedReq MSHR misses
system.l2.ReadSharedReq_mshr_misses::total        17083                       # number of ReadSharedReq MSHR misses
system.l2.demand_mshr_misses::cpu.inst            356                       # number of demand (read+write) MSHR misses
system.l2.demand_mshr_misses::cpu.data          23525                       # number of demand (read+write) MSHR misses
system.l2.demand_mshr_misses::total             23881                       # number of demand (read+write) MSHR misses
system.l2.overall_mshr_misses::cpu.inst           356                       # number of overall MSHR misses
system.l2.overall_mshr_misses::cpu.data         23525                       # number of overall MSHR misses
system.l2.overall_mshr_misses::total            23881                       # number of overall MSHR misses
system.l2.UpgradeReq_mshr_miss_latency::cpu.data       322500                       # number of UpgradeReq MSHR miss cycles
system.l2.UpgradeReq_mshr_miss_latency::total       322500                       # number of UpgradeReq MSHR miss cycles
system.l2.ReadExReq_mshr_miss_latency::cpu.data    456716000                       # number of ReadExReq MSHR miss cycles
system.l2.ReadExReq_mshr_miss_latency::total    456716000                       # number of ReadExReq MSHR miss cycles
system.l2.ReadCleanReq_mshr_miss_latency::cpu.inst     54247500                       # number of ReadCleanReq MSHR miss cycles
system.l2.ReadCleanReq_mshr_miss_latency::total     54247500                       # number of ReadCleanReq MSHR miss cycles
system.l2.ReadSharedReq_mshr_miss_latency::cpu.data    531542000                       # number of ReadSharedReq MSHR miss cycles
system.l2.ReadSharedReq_mshr_miss_latency::total    531542000                       # number of ReadSharedReq MSHR miss cycles
system.l2.demand_mshr_miss_latency::cpu.inst     54247500                       # number of demand (read+write) MSHR miss cycles
system.l2.demand_mshr_miss_latency::cpu.data    988258000                       # number of demand (read+write) MSHR miss cycles
system.l2.demand_mshr_miss_latency::total   1042505500                       # number of demand (read+write) MSHR miss cycles
system.l2.overall_mshr_miss_latency::cpu.inst     54247500                       # number of overall MSHR miss cycles
system.l2.overall_mshr_miss_latency::cpu.data    988258000                       # number of overall MSHR miss cycles
system.l2.overall_mshr_miss_latency::total   1042505500                       # number of overall MSHR miss cycles
system.l2.CleanEvict_mshr_miss_rate::writebacks          inf                       # mshr miss rate for CleanEvict accesses
system.l2.CleanEvict_mshr_miss_rate::total          inf                       # mshr miss rate for CleanEvict accesses
system.l2.UpgradeReq_mshr_miss_rate::cpu.data     0.000980                       # mshr miss rate for UpgradeReq accesses
system.l2.UpgradeReq_mshr_miss_rate::total     0.000980                       # mshr miss rate for UpgradeReq accesses
system.l2.ReadExReq_mshr_miss_rate::cpu.data     0.977245                       # mshr miss rate for ReadExReq accesses
system.l2.ReadExReq_mshr_miss_rate::total     0.977245                       # mshr miss rate for ReadExReq accesses
system.l2.ReadCleanReq_mshr_miss_rate::cpu.inst            1                       # mshr miss rate for ReadCleanReq accesses
system.l2.ReadCleanReq_mshr_miss_rate::total            1                       # mshr miss rate for ReadCleanReq accesses
system.l2.ReadSharedReq_mshr_miss_rate::cpu.data     0.563721                       # mshr miss rate for ReadSharedReq accesses
system.l2.ReadSharedReq_mshr_miss_rate::total     0.563721                       # mshr miss rate for ReadSharedReq accesses
system.l2.demand_mshr_miss_rate::cpu.inst            1                       # mshr miss rate for demand accesses
system.l2.demand_mshr_miss_rate::cpu.data     0.637603                       # mshr miss rate for demand accesses
system.l2.demand_mshr_miss_rate::total       0.641066                       # mshr miss rate for demand accesses
system.l2.overall_mshr_miss_rate::cpu.inst            1                       # mshr miss rate for overall accesses
system.l2.overall_mshr_miss_rate::cpu.data     0.637603                       # mshr miss rate for overall accesses
system.l2.overall_mshr_miss_rate::total      0.641066                       # mshr miss rate for overall accesses
system.l2.UpgradeReq_avg_mshr_miss_latency::cpu.data        21500                       # average UpgradeReq mshr miss latency
system.l2.UpgradeReq_avg_mshr_miss_latency::total        21500                       # average UpgradeReq mshr miss latency
system.l2.ReadExReq_avg_mshr_miss_latency::cpu.data 70896.615958                       # average ReadExReq mshr miss latency
system.l2.ReadExReq_avg_mshr_miss_latency::total 70896.615958                       # average ReadExReq mshr miss latency
system.l2.ReadCleanReq_avg_mshr_miss_latency::cpu.inst 152380.617978                       # average ReadCleanReq mshr miss latency
system.l2.ReadCleanReq_avg_mshr_miss_latency::total 152380.617978                       # average ReadCleanReq mshr miss latency
system.l2.ReadSharedReq_avg_mshr_miss_latency::cpu.data 31115.260786                       # average ReadSharedReq mshr miss latency
system.l2.ReadSharedReq_avg_mshr_miss_latency::total 31115.260786                       # average ReadSharedReq mshr miss latency
system.l2.demand_avg_mshr_miss_latency::cpu.inst 152380.617978                       # average overall mshr miss latency
system.l2.demand_avg_mshr_miss_latency::cpu.data 42008.841658                       # average overall mshr miss latency
system.l2.demand_avg_mshr_miss_latency::total 43654.181148                       # average overall mshr miss latency
system.l2.overall_avg_mshr_miss_latency::cpu.inst 152380.617978                       # average overall mshr miss latency
system.l2.overall_avg_mshr_miss_latency::cpu.data 42008.841658                       # average overall mshr miss latency
system.l2.overall_avg_mshr_miss_latency::total 43654.181148                       # average overall mshr miss latency
system.l2.replacements                          31437                       # number of replacements
system.l3.tags.pwrStateResidencyTicks::UNDEFINED  88272824000                       # Cumulative time (in ticks) in various power states
system.l3.tags.tagsinuse                  5965.468984                       # Cycle average of tags in use
system.l3.tags.total_refs                       45781                       # Total number of references to valid blocks.
system.l3.tags.sampled_refs                      7523                       # Sample count of references to valid blocks.
system.l3.tags.avg_refs                      6.085471                       # Average number of references to valid blocks.
system.l3.tags.warmup_cycle                    418000                       # Cycle when the warmup percentage was hit.
system.l3.tags.occ_blocks::writebacks        6.153592                       # Average occupied blocks per requestor
system.l3.tags.occ_blocks::cpu.inst        216.178933                       # Average occupied blocks per requestor
system.l3.tags.occ_blocks::cpu.data       5743.136459                       # Average occupied blocks per requestor
system.l3.tags.occ_percent::writebacks       0.000751                       # Average percentage of cache occupancy
system.l3.tags.occ_percent::cpu.inst         0.026389                       # Average percentage of cache occupancy
system.l3.tags.occ_percent::cpu.data         0.701066                       # Average percentage of cache occupancy
system.l3.tags.occ_percent::total            0.728207                       # Average percentage of cache occupancy
system.l3.tags.occ_task_id_blocks::1024          6414                       # Occupied blocks per task id
system.l3.tags.age_task_id_blocks_1024::0           38                       # Occupied blocks per task id
system.l3.tags.age_task_id_blocks_1024::1           25                       # Occupied blocks per task id
system.l3.tags.age_task_id_blocks_1024::3            2                       # Occupied blocks per task id
system.l3.tags.age_task_id_blocks_1024::4         6349                       # Occupied blocks per task id
system.l3.tags.occ_task_id_percent::1024     0.782959                       # Percentage of cache occupancy per task id
system.l3.tags.tag_accesses                     99091                       # Number of tag accesses
system.l3.tags.data_accesses                    99091                       # Number of data accesses
system.l3.pwrStateResidencyTicks::UNDEFINED  88272824000                       # Cumulative time (in ticks) in various power states
system.l3.WritebackDirty_hits::writebacks        21370                       # number of WritebackDirty hits
system.l3.WritebackDirty_hits::total            21370                       # number of WritebackDirty hits
system.l3.UpgradeReq_hits::cpu.data                15                       # number of UpgradeReq hits
system.l3.UpgradeReq_hits::total                   15                       # number of UpgradeReq hits
system.l3.ReadExReq_hits::cpu.data                 46                       # number of ReadExReq hits
system.l3.ReadExReq_hits::total                    46                       # number of ReadExReq hits
system.l3.ReadSharedReq_hits::cpu.data          16443                       # number of ReadSharedReq hits
system.l3.ReadSharedReq_hits::total             16443                       # number of ReadSharedReq hits
system.l3.demand_hits::cpu.data                 16489                       # number of demand (read+write) hits
system.l3.demand_hits::total                    16489                       # number of demand (read+write) hits
system.l3.overall_hits::cpu.data                16489                       # number of overall hits
system.l3.overall_hits::total                   16489                       # number of overall hits
system.l3.ReadExReq_misses::cpu.data             6396                       # number of ReadExReq misses
system.l3.ReadExReq_misses::total                6396                       # number of ReadExReq misses
system.l3.ReadSharedReq_misses::cpu.inst          356                       # number of ReadSharedReq misses
system.l3.ReadSharedReq_misses::cpu.data          640                       # number of ReadSharedReq misses
system.l3.ReadSharedReq_misses::total             996                       # number of ReadSharedReq misses
system.l3.demand_misses::cpu.inst                 356                       # number of demand (read+write) misses
system.l3.demand_misses::cpu.data                7036                       # number of demand (read+write) misses
system.l3.demand_misses::total                   7392                       # number of demand (read+write) misses
system.l3.overall_misses::cpu.inst                356                       # number of overall misses
system.l3.overall_misses::cpu.data               7036                       # number of overall misses
system.l3.overall_misses::total                  7392                       # number of overall misses
system.l3.ReadExReq_miss_latency::cpu.data    385371000                       # number of ReadExReq miss cycles
system.l3.ReadExReq_miss_latency::total     385371000                       # number of ReadExReq miss cycles
system.l3.ReadSharedReq_miss_latency::cpu.inst     50331500                       # number of ReadSharedReq miss cycles
system.l3.ReadSharedReq_miss_latency::cpu.data    168296500                       # number of ReadSharedReq miss cycles
system.l3.ReadSharedReq_miss_latency::total    218628000                       # number of ReadSharedReq miss cycles
system.l3.demand_miss_latency::cpu.inst      50331500                       # number of demand (read+write) miss cycles
system.l3.demand_miss_latency::cpu.data     553667500                       # number of demand (read+write) miss cycles
system.l3.demand_miss_latency::total        603999000                       # number of demand (read+write) miss cycles
system.l3.overall_miss_latency::cpu.inst     50331500                       # number of overall miss cycles
system.l3.overall_miss_latency::cpu.data    553667500                       # number of overall miss cycles
system.l3.overall_miss_latency::total       603999000                       # number of overall miss cycles
system.l3.WritebackDirty_accesses::writebacks        21370                       # number of WritebackDirty accesses(hits+misses)
system.l3.WritebackDirty_accesses::total        21370                       # number of WritebackDirty accesses(hits+misses)
system.l3.UpgradeReq_accesses::cpu.data            15                       # number of UpgradeReq accesses(hits+misses)
system.l3.UpgradeReq_accesses::total               15                       # number of UpgradeReq accesses(hits+misses)
system.l3.ReadExReq_accesses::cpu.data           6442                       # number of ReadExReq accesses(hits+misses)
system.l3.ReadExReq_accesses::total              6442                       # number of ReadExReq accesses(hits+misses)
system.l3.ReadSharedReq_accesses::cpu.inst          356                       # number of ReadSharedReq accesses(hits+misses)
system.l3.ReadSharedReq_accesses::cpu.data        17083                       # number of ReadSharedReq accesses(hits+misses)
system.l3.ReadSharedReq_accesses::total         17439                       # number of ReadSharedReq accesses(hits+misses)
system.l3.demand_accesses::cpu.inst               356                       # number of demand (read+write) accesses
system.l3.demand_accesses::cpu.data             23525                       # number of demand (read+write) accesses
system.l3.demand_accesses::total                23881                       # number of demand (read+write) accesses
system.l3.overall_accesses::cpu.inst              356                       # number of overall (read+write) accesses
system.l3.overall_accesses::cpu.data            23525                       # number of overall (read+write) accesses
system.l3.overall_accesses::total               23881                       # number of overall (read+write) accesses
system.l3.ReadExReq_miss_rate::cpu.data      0.992859                       # miss rate for ReadExReq accesses
system.l3.ReadExReq_miss_rate::total         0.992859                       # miss rate for ReadExReq accesses
system.l3.ReadSharedReq_miss_rate::cpu.inst            1                       # miss rate for ReadSharedReq accesses
system.l3.ReadSharedReq_miss_rate::cpu.data     0.037464                       # miss rate for ReadSharedReq accesses
system.l3.ReadSharedReq_miss_rate::total     0.057113                       # miss rate for ReadSharedReq accesses
system.l3.demand_miss_rate::cpu.inst                1                       # miss rate for demand accesses
system.l3.demand_miss_rate::cpu.data         0.299086                       # miss rate for demand accesses
system.l3.demand_miss_rate::total            0.309535                       # miss rate for demand accesses
system.l3.overall_miss_rate::cpu.inst               1                       # miss rate for overall accesses
system.l3.overall_miss_rate::cpu.data        0.299086                       # miss rate for overall accesses
system.l3.overall_miss_rate::total           0.309535                       # miss rate for overall accesses
system.l3.ReadExReq_avg_miss_latency::cpu.data 60251.876173                       # average ReadExReq miss latency
system.l3.ReadExReq_avg_miss_latency::total 60251.876173                       # average ReadExReq miss latency
system.l3.ReadSharedReq_avg_miss_latency::cpu.inst 141380.617978                       # average ReadSharedReq miss latency
system.l3.ReadSharedReq_avg_miss_latency::cpu.data 262963.281250                       # average ReadSharedReq miss latency
system.l3.ReadSharedReq_avg_miss_latency::total 219506.024096                       # average ReadSharedReq miss latency
system.l3.demand_avg_miss_latency::cpu.inst 141380.617978                       # average overall miss latency
system.l3.demand_avg_miss_latency::cpu.data 78690.662308                       # average overall miss latency
system.l3.demand_avg_miss_latency::total 81709.821429                       # average overall miss latency
system.l3.overall_avg_miss_latency::cpu.inst 141380.617978                       # average overall miss latency
system.l3.overall_avg_miss_latency::cpu.data 78690.662308                       # average overall miss latency
system.l3.overall_avg_miss_latency::total 81709.821429                       # average overall miss latency
system.l3.blocked_cycles::no_mshrs                  0                       # number of cycles access was blocked
system.l3.blocked_cycles::no_targets                0                       # number of cycles access was blocked
system.l3.blocked::no_mshrs                         0                       # number of cycles access was blocked
system.l3.blocked::no_targets                       0                       # number of cycles access was blocked
system.l3.avg_blocked_cycles::no_mshrs            nan                       # average number of cycles each access was blocked
system.l3.avg_blocked_cycles::no_targets          nan                       # average number of cycles each access was blocked
system.l3.writebacks::writebacks                  813                       # number of writebacks
system.l3.writebacks::total                       813                       # number of writebacks
system.l3.CleanEvict_mshr_misses::writebacks            3                       # number of CleanEvict MSHR misses
system.l3.CleanEvict_mshr_misses::total             3                       # number of CleanEvict MSHR misses
system.l3.ReadExReq_mshr_misses::cpu.data         6396                       # number of ReadExReq MSHR misses
system.l3.ReadExReq_mshr_misses::total           6396                       # number of ReadExReq MSHR misses
system.l3.ReadSharedReq_mshr_misses::cpu.inst          356                       # number of ReadSharedReq MSHR misses
system.l3.ReadSharedReq_mshr_misses::cpu.data          640                       # number of ReadSharedReq MSHR misses
system.l3.ReadSharedReq_mshr_misses::total          996                       # number of ReadSharedReq MSHR misses
system.l3.demand_mshr_misses::cpu.inst            356                       # number of demand (read+write) MSHR misses
system.l3.demand_mshr_misses::cpu.data           7036                       # number of demand (read+write) MSHR misses
system.l3.demand_mshr_misses::total              7392                       # number of demand (read+write) MSHR misses
system.l3.overall_mshr_misses::cpu.inst           356                       # number of overall MSHR misses
system.l3.overall_mshr_misses::cpu.data          7036                       # number of overall MSHR misses
system.l3.overall_mshr_misses::total             7392                       # number of overall MSHR misses
system.l3.ReadExReq_mshr_miss_latency::cpu.data    321411000                       # number of ReadExReq MSHR miss cycles
system.l3.ReadExReq_mshr_miss_latency::total    321411000                       # number of ReadExReq MSHR miss cycles
system.l3.ReadSharedReq_mshr_miss_latency::cpu.inst     46771500                       # number of ReadSharedReq MSHR miss cycles
system.l3.ReadSharedReq_mshr_miss_latency::cpu.data    161896500                       # number of ReadSharedReq MSHR miss cycles
system.l3.ReadSharedReq_mshr_miss_latency::total    208668000                       # number of ReadSharedReq MSHR miss cycles
system.l3.demand_mshr_miss_latency::cpu.inst     46771500                       # number of demand (read+write) MSHR miss cycles
system.l3.demand_mshr_miss_latency::cpu.data    483307500                       # number of demand (read+write) MSHR miss cycles
system.l3.demand_mshr_miss_latency::total    530079000                       # number of demand (read+write) MSHR miss cycles
system.l3.overall_mshr_miss_latency::cpu.inst     46771500                       # number of overall MSHR miss cycles
system.l3.overall_mshr_miss_latency::cpu.data    483307500                       # number of overall MSHR miss cycles
system.l3.overall_mshr_miss_latency::total    530079000                       # number of overall MSHR miss cycles
system.l3.CleanEvict_mshr_miss_rate::writebacks          inf                       # mshr miss rate for CleanEvict accesses
system.l3.CleanEvict_mshr_miss_rate::total          inf                       # mshr miss rate for CleanEvict accesses
system.l3.ReadExReq_mshr_miss_rate::cpu.data     0.992859                       # mshr miss rate for ReadExReq accesses
system.l3.ReadExReq_mshr_miss_rate::total     0.992859                       # mshr miss rate for ReadExReq accesses
system.l3.ReadSharedReq_mshr_miss_rate::cpu.inst            1                       # mshr miss rate for ReadSharedReq accesses
system.l3.ReadSharedReq_mshr_miss_rate::cpu.data     0.037464                       # mshr miss rate for ReadSharedReq accesses
system.l3.ReadSharedReq_mshr_miss_rate::total     0.057113                       # mshr miss rate for ReadSharedReq accesses
system.l3.demand_mshr_miss_rate::cpu.inst            1                       # mshr miss rate for demand accesses
system.l3.demand_mshr_miss_rate::cpu.data     0.299086                       # mshr miss rate for demand accesses
system.l3.demand_mshr_miss_rate::total       0.309535                       # mshr miss rate for demand accesses
system.l3.overall_mshr_miss_rate::cpu.inst            1                       # mshr miss rate for overall accesses
system.l3.overall_mshr_miss_rate::cpu.data     0.299086                       # mshr miss rate for overall accesses
system.l3.overall_mshr_miss_rate::total      0.309535                       # mshr miss rate for overall accesses
system.l3.ReadExReq_avg_mshr_miss_latency::cpu.data 50251.876173                       # average ReadExReq mshr miss latency
system.l3.ReadExReq_avg_mshr_miss_latency::total 50251.876173                       # average ReadExReq mshr miss latency
system.l3.ReadSharedReq_avg_mshr_miss_latency::cpu.inst 131380.617978                       # average ReadSharedReq mshr miss latency
system.l3.ReadSharedReq_avg_mshr_miss_latency::cpu.data 252963.281250                       # average ReadSharedReq mshr miss latency
system.l3.ReadSharedReq_avg_mshr_miss_latency::total 209506.024096                       # average ReadSharedReq mshr miss latency
system.l3.demand_avg_mshr_miss_latency::cpu.inst 131380.617978                       # average overall mshr miss latency
system.l3.demand_avg_mshr_miss_latency::cpu.data 68690.662308                       # average overall mshr miss latency
system.l3.demand_avg_mshr_miss_latency::total 71709.821429                       # average overall mshr miss latency
system.l3.overall_avg_mshr_miss_latency::cpu.inst 131380.617978                       # average overall mshr miss latency
system.l3.overall_avg_mshr_miss_latency::cpu.data 68690.662308                       # average overall mshr miss latency
system.l3.overall_avg_mshr_miss_latency::total 71709.821429                       # average overall mshr miss latency
system.l3.replacements                           1109                       # number of replacements
system.membus.snoop_filter.tot_requests          8367                       # Total number of requests made to the snoop filter.
system.membus.snoop_filter.hit_single_requests          975                       # Number of requests hitting in the snoop filter with a single holder of the requested data.
system.membus.snoop_filter.hit_multi_requests            0                       # Number of requests hitting in the snoop filter with multiple (>1) holders of the requested data.
system.membus.snoop_filter.tot_snoops               0                       # Total number of snoops made to the snoop filter.
system.membus.snoop_filter.hit_single_snoops            0                       # Number of snoops hitting in the snoop filter with a single holder of the requested data.
system.membus.snoop_filter.hit_multi_snoops            0                       # Number of snoops hitting in the snoop filter with multiple (>1) holders of the requested data.
system.membus.pwrStateResidencyTicks::UNDEFINED  88272824000                       # Cumulative time (in ticks) in various power states
system.membus.trans_dist::ReadResp                996                       # Transaction distribution
system.membus.trans_dist::WritebackDirty          813                       # Transaction distribution
system.membus.trans_dist::CleanEvict               65                       # Transaction distribution
system.membus.trans_dist::ReadExReq              6396                       # Transaction distribution
system.membus.trans_dist::ReadExResp             6396                       # Transaction distribution
system.membus.trans_dist::ReadSharedReq           996                       # Transaction distribution
system.membus.pkt_count_system.l3.mem_side::system.mem_ctrls.port        15662                       # Packet count per connected master and slave (bytes)
system.membus.pkt_count_system.l3.mem_side::total        15662                       # Packet count per connected master and slave (bytes)
system.membus.pkt_count::total                  15662                       # Packet count per connected master and slave (bytes)
system.membus.pkt_size_system.l3.mem_side::system.mem_ctrls.port       525120                       # Cumulative packet size per connected master and slave (bytes)
system.membus.pkt_size_system.l3.mem_side::total       525120                       # Cumulative packet size per connected master and slave (bytes)
system.membus.pkt_size::total                  525120                       # Cumulative packet size per connected master and slave (bytes)
system.membus.snoops                                0                       # Total snoops (count)
system.membus.snoopTraffic                          0                       # Total snoop traffic (bytes)
system.membus.snoop_fanout::samples              7392                       # Request fanout histogram
system.membus.snoop_fanout::mean                    0                       # Request fanout histogram
system.membus.snoop_fanout::stdev                   0                       # Request fanout histogram
system.membus.snoop_fanout::underflows              0      0.00%      0.00% # Request fanout histogram
system.membus.snoop_fanout::0                    7392    100.00%    100.00% # Request fanout histogram
system.membus.snoop_fanout::1                       0      0.00%    100.00% # Request fanout histogram
system.membus.snoop_fanout::overflows               0      0.00%    100.00% # Request fanout histogram
system.membus.snoop_fanout::min_value               0                       # Request fanout histogram
system.membus.snoop_fanout::max_value               0                       # Request fanout histogram
system.membus.snoop_fanout::total                7392                       # Request fanout histogram
system.membus.reqLayer2.occupancy            11633000                       # Layer occupancy (ticks)
system.membus.reqLayer2.utilization               0.0                       # Layer utilization (%)
system.membus.respLayer1.occupancy           36963000                       # Layer occupancy (ticks)
system.membus.respLayer1.utilization              0.0                       # Layer utilization (%)
system.tol2bus.snoop_filter.tot_requests        88481                       # Total number of requests made to the snoop filter.
system.tol2bus.snoop_filter.hit_single_requests        51229                       # Number of requests hitting in the snoop filter with a single holder of the requested data.
system.tol2bus.snoop_filter.hit_multi_requests            0                       # Number of requests hitting in the snoop filter with multiple (>1) holders of the requested data.
system.tol2bus.snoop_filter.tot_snoops          10606                       # Total number of snoops made to the snoop filter.
system.tol2bus.snoop_filter.hit_single_snoops        10606                       # Number of snoops hitting in the snoop filter with a single holder of the requested data.
system.tol2bus.snoop_filter.hit_multi_snoops            0                       # Number of snoops hitting in the snoop filter with multiple (>1) holders of the requested data.
system.tol2bus.pwrStateResidencyTicks::UNDEFINED  88272824000                       # Cumulative time (in ticks) in various power states
system.tol2bus.trans_dist::ReadResp             30660                       # Transaction distribution
system.tol2bus.trans_dist::WritebackDirty        56047                       # Transaction distribution
system.tol2bus.trans_dist::WritebackClean           46                       # Transaction distribution
system.tol2bus.trans_dist::CleanEvict           11496                       # Transaction distribution
system.tol2bus.trans_dist::UpgradeReq           15311                       # Transaction distribution
system.tol2bus.trans_dist::UpgradeResp          15311                       # Transaction distribution
system.tol2bus.trans_dist::ReadExReq             6592                       # Transaction distribution
system.tol2bus.trans_dist::ReadExResp            6592                       # Transaction distribution
system.tol2bus.trans_dist::ReadCleanReq           356                       # Transaction distribution
system.tol2bus.trans_dist::ReadSharedReq        30304                       # Transaction distribution
system.tol2bus.pkt_count_system.cpu.icache.mem_side::system.l2.cpu_side          758                       # Packet count per connected master and slave (bytes)
system.tol2bus.pkt_count_system.cpu.dcache.mem_side::system.l2.cpu_side       140286                       # Packet count per connected master and slave (bytes)
system.tol2bus.pkt_count::total                141044                       # Packet count per connected master and slave (bytes)
system.tol2bus.pkt_size_system.cpu.icache.mem_side::system.l2.cpu_side        25728                       # Cumulative packet size per connected master and slave (bytes)
system.tol2bus.pkt_size_system.cpu.dcache.mem_side::system.l2.cpu_side      4580672                       # Cumulative packet size per connected master and slave (bytes)
system.tol2bus.pkt_size::total                4606400                       # Cumulative packet size per connected master and slave (bytes)
system.tol2bus.snoops                           31671                       # Total snoops (count)
system.tol2bus.snoopTraffic                   1367680                       # Total snoop traffic (bytes)
system.tol2bus.snoop_fanout::samples            84234                       # Request fanout histogram
system.tol2bus.snoop_fanout::mean            0.125911                       # Request fanout histogram
system.tol2bus.snoop_fanout::stdev           0.331751                       # Request fanout histogram
system.tol2bus.snoop_fanout::underflows             0      0.00%      0.00% # Request fanout histogram
system.tol2bus.snoop_fanout::0                  73628     87.41%     87.41% # Request fanout histogram
system.tol2bus.snoop_fanout::1                  10606     12.59%    100.00% # Request fanout histogram
system.tol2bus.snoop_fanout::2                      0      0.00%    100.00% # Request fanout histogram
system.tol2bus.snoop_fanout::3                      0      0.00%    100.00% # Request fanout histogram
system.tol2bus.snoop_fanout::4                      0      0.00%    100.00% # Request fanout histogram
system.tol2bus.snoop_fanout::overflows              0      0.00%    100.00% # Request fanout histogram
system.tol2bus.snoop_fanout::min_value              0                       # Request fanout histogram
system.tol2bus.snoop_fanout::max_value              1                       # Request fanout histogram
system.tol2bus.snoop_fanout::total              84234                       # Request fanout histogram
system.tol2bus.reqLayer0.occupancy           78963500                       # Layer occupancy (ticks)
system.tol2bus.reqLayer0.utilization              0.1                       # Layer utilization (%)
system.tol2bus.respLayer0.occupancy            534000                       # Layer occupancy (ticks)
system.tol2bus.respLayer0.utilization             0.0                       # Layer utilization (%)
system.tol2bus.respLayer1.occupancy          62999500                       # Layer occupancy (ticks)
system.tol2bus.respLayer1.utilization             0.1                       # Layer utilization (%)
system.tol3bus.snoop_filter.tot_requests        45786                       # Total number of requests made to the snoop filter.
system.tol3bus.snoop_filter.hit_single_requests        21905                       # Number of requests hitting in the snoop filter with a single holder of the requested data.
system.tol3bus.snoop_filter.hit_multi_requests            0                       # Number of requests hitting in the snoop filter with multiple (>1) holders of the requested data.
system.tol3bus.snoop_filter.tot_snoops            234                       # Total number of snoops made to the snoop filter.
system.tol3bus.snoop_filter.hit_single_snoops          234                       # Number of snoops hitting in the snoop filter with a single holder of the requested data.
system.tol3bus.snoop_filter.hit_multi_snoops            0                       # Number of snoops hitting in the snoop filter with multiple (>1) holders of the requested data.
system.tol3bus.pwrStateResidencyTicks::UNDEFINED  88272824000                       # Cumulative time (in ticks) in various power states
system.tol3bus.trans_dist::ReadResp             17439                       # Transaction distribution
system.tol3bus.trans_dist::WritebackDirty        22183                       # Transaction distribution
system.tol3bus.trans_dist::CleanEvict             814                       # Transaction distribution
system.tol3bus.trans_dist::UpgradeReq              15                       # Transaction distribution
system.tol3bus.trans_dist::UpgradeResp             15                       # Transaction distribution
system.tol3bus.trans_dist::ReadExReq             6442                       # Transaction distribution
system.tol3bus.trans_dist::ReadExResp            6442                       # Transaction distribution
system.tol3bus.trans_dist::ReadSharedReq        17439                       # Transaction distribution
system.tol3bus.pkt_count_system.l2.mem_side::system.l3.cpu_side        69680                       # Packet count per connected master and slave (bytes)
system.tol3bus.pkt_size_system.l2.mem_side::system.l3.cpu_side      2896064                       # Cumulative packet size per connected master and slave (bytes)
system.tol3bus.snoops                            1109                       # Total snoops (count)
system.tol3bus.snoopTraffic                     52032                       # Total snoop traffic (bytes)
system.tol3bus.snoop_fanout::samples            25005                       # Request fanout histogram
system.tol3bus.snoop_fanout::mean            0.009358                       # Request fanout histogram
system.tol3bus.snoop_fanout::stdev           0.096286                       # Request fanout histogram
system.tol3bus.snoop_fanout::underflows             0      0.00%      0.00% # Request fanout histogram
system.tol3bus.snoop_fanout::0                  24771     99.06%     99.06% # Request fanout histogram
system.tol3bus.snoop_fanout::1                    234      0.94%    100.00% # Request fanout histogram
system.tol3bus.snoop_fanout::overflows              0      0.00%    100.00% # Request fanout histogram
system.tol3bus.snoop_fanout::min_value              0                       # Request fanout histogram
system.tol3bus.snoop_fanout::max_value              1                       # Request fanout histogram
system.tol3bus.snoop_fanout::total              25005                       # Request fanout histogram
system.tol3bus.reqLayer0.occupancy           44263998                       # Layer occupancy (ticks)
system.tol3bus.reqLayer0.utilization              0.1                       # Layer utilization (%)
system.tol3bus.respLayer0.occupancy          35829002                       # Layer occupancy (ticks)
system.tol3bus.respLayer0.utilization             0.0                       # Layer utilization (%)

---------- End Simulation Statistics   ----------
