
---------- Begin Simulation Statistics ----------
sim_seconds                                  6.029018                       # Number of seconds simulated
sim_ticks                                6029017710000                       # Number of ticks simulated
final_tick                               6029017710000                       # Number of ticks from beginning of simulation (restored from checkpoints and never reset)
sim_freq                                 1000000000000                       # Frequency of simulated ticks
host_inst_rate                                 518545                       # Simulator instruction rate (inst/s)
host_op_rate                                   830617                       # Simulator op (including micro ops) rate (op/s)
host_tick_rate                             3355566807                       # Simulator tick rate (ticks/s)
host_mem_usage                                 661948                       # Number of bytes of host memory used
host_seconds                                  1796.72                       # Real time elapsed on the host
sim_insts                                   931679913                       # Number of instructions simulated
sim_ops                                    1492387768                       # Number of ops (including micro ops) simulated
system.voltage_domain.voltage                       1                       # Voltage in Volts
system.clk_domain.clock                          1000                       # Clock period in ticks
system.mem_ctrls.pwrStateResidencyTicks::UNDEFINED 6029017710000                       # Cumulative time (in ticks) in various power states
system.mem_ctrls.bytes_read::cpu.inst           22464                       # Number of bytes read from this memory
system.mem_ctrls.bytes_read::cpu.data         1555456                       # Number of bytes read from this memory
system.mem_ctrls.bytes_read::total            1577920                       # Number of bytes read from this memory
system.mem_ctrls.bytes_inst_read::cpu.inst        22464                       # Number of instructions bytes read from this memory
system.mem_ctrls.bytes_inst_read::total         22464                       # Number of instructions bytes read from this memory
system.mem_ctrls.bytes_written::writebacks    915303808                       # Number of bytes written to this memory
system.mem_ctrls.bytes_written::total       915303808                       # Number of bytes written to this memory
system.mem_ctrls.num_reads::cpu.inst              351                       # Number of read requests responded to by this memory
system.mem_ctrls.num_reads::cpu.data            24304                       # Number of read requests responded to by this memory
system.mem_ctrls.num_reads::total               24655                       # Number of read requests responded to by this memory
system.mem_ctrls.num_writes::writebacks      14301622                       # Number of write requests responded to by this memory
system.mem_ctrls.num_writes::total           14301622                       # Number of write requests responded to by this memory
system.mem_ctrls.bw_read::cpu.inst               3726                       # Total read bandwidth from this memory (bytes/s)
system.mem_ctrls.bw_read::cpu.data             257995                       # Total read bandwidth from this memory (bytes/s)
system.mem_ctrls.bw_read::total                261721                       # Total read bandwidth from this memory (bytes/s)
system.mem_ctrls.bw_inst_read::cpu.inst          3726                       # Instruction read bandwidth from this memory (bytes/s)
system.mem_ctrls.bw_inst_read::total             3726                       # Instruction read bandwidth from this memory (bytes/s)
system.mem_ctrls.bw_write::writebacks       151816407                       # Write bandwidth from this memory (bytes/s)
system.mem_ctrls.bw_write::total            151816407                       # Write bandwidth from this memory (bytes/s)
system.mem_ctrls.bw_total::writebacks       151816407                       # Total bandwidth to/from this memory (bytes/s)
system.mem_ctrls.bw_total::cpu.inst              3726                       # Total bandwidth to/from this memory (bytes/s)
system.mem_ctrls.bw_total::cpu.data            257995                       # Total bandwidth to/from this memory (bytes/s)
system.mem_ctrls.bw_total::total            152078128                       # Total bandwidth to/from this memory (bytes/s)
system.pwrStateResidencyTicks::UNDEFINED 6029017710000                       # Cumulative time (in ticks) in various power states
system.cpu_voltage_domain.voltage                   1                       # Voltage in Volts
system.cpu_clk_domain.clock                       500                       # Clock period in ticks
system.cpu.dtb.walker.pwrStateResidencyTicks::UNDEFINED 6029017710000                       # Cumulative time (in ticks) in various power states
system.cpu.dtb.rdAccesses                   382684108                       # TLB accesses on read requests
system.cpu.dtb.wrAccesses                    56342491                       # TLB accesses on write requests
system.cpu.dtb.rdMisses                       7936609                       # TLB misses on read requests
system.cpu.dtb.wrMisses                           272                       # TLB misses on write requests
system.cpu.apic_clk_domain.clock                 8000                       # Clock period in ticks
system.cpu.interrupts.pwrStateResidencyTicks::UNDEFINED 6029017710000                       # Cumulative time (in ticks) in various power states
system.cpu.itb.walker.pwrStateResidencyTicks::UNDEFINED 6029017710000                       # Cumulative time (in ticks) in various power states
system.cpu.itb.rdAccesses                           0                       # TLB accesses on read requests
system.cpu.itb.wrAccesses                  1449455644                       # TLB accesses on write requests
system.cpu.itb.rdMisses                             0                       # TLB misses on read requests
system.cpu.itb.wrMisses                            37                       # TLB misses on write requests
system.cpu.workload.numSyscalls                     9                       # Number of system calls
system.cpu.pwrStateResidencyTicks::ON    6029017710000                       # Cumulative time (in ticks) in various power states
system.cpu.numCycles                      12058035420                       # number of cpu cycles simulated
system.cpu.numWorkItemsStarted                      0                       # number of work items this cpu started
system.cpu.numWorkItemsCompleted                    0                       # number of work items this cpu completed
system.cpu.committedInsts                   931679913                       # Number of instructions committed
system.cpu.committedOps                    1492387768                       # Number of ops (including micro ops) committed
system.cpu.num_int_alu_accesses            1491881056                       # Number of integer alu accesses
system.cpu.num_fp_alu_accesses                   1959                       # Number of float alu accesses
system.cpu.num_vec_alu_accesses                     0                       # Number of vector alu accesses
system.cpu.num_func_calls                     1080242                       # number of times a function call or return occured
system.cpu.num_conditional_control_insts     29571459                       # number of instructions that are conditional controls
system.cpu.num_int_insts                   1491881056                       # number of integer instructions
system.cpu.num_fp_insts                          1959                       # number of float instructions
system.cpu.num_vec_insts                            0                       # number of vector instructions
system.cpu.num_int_register_reads          2934935020                       # number of times the integer registers were read
system.cpu.num_int_register_writes         1545692928                       # number of times the integer registers were written
system.cpu.num_fp_register_reads                 3779                       # number of times the floating registers were read
system.cpu.num_fp_register_writes                1484                       # number of times the floating registers were written
system.cpu.num_vec_register_reads                   0                       # number of times the vector registers were read
system.cpu.num_vec_register_writes                  0                       # number of times the vector registers were written
system.cpu.num_cc_register_reads            159199271                       # number of times the CC registers were read
system.cpu.num_cc_register_writes           523310535                       # number of times the CC registers were written
system.cpu.num_mem_refs                     439026595                       # number of memory refs
system.cpu.num_load_insts                   382684105                       # Number of load instructions
system.cpu.num_store_insts                   56342490                       # Number of store instructions
system.cpu.num_idle_cycles                          0                       # Number of idle cycles
system.cpu.num_busy_cycles                12058035420                       # Number of busy cycles
system.cpu.not_idle_fraction                        1                       # Percentage of non-idle cycles
system.cpu.idle_fraction                            0                       # Percentage of idle cycles
system.cpu.Branches                          30742411                       # Number of branches fetched
system.cpu.op_class::No_OpClass                505291      0.03%      0.03% # Class of executed instruction
system.cpu.op_class::IntAlu                 915024136     61.31%     61.35% # Class of executed instruction
system.cpu.op_class::IntMult                135270004      9.06%     70.41% # Class of executed instruction
system.cpu.op_class::IntDiv                   2560782      0.17%     70.58% # Class of executed instruction
system.cpu.op_class::FloatAdd                      10      0.00%     70.58% # Class of executed instruction
system.cpu.op_class::FloatCmp                       0      0.00%     70.58% # Class of executed instruction
system.cpu.op_class::FloatCvt                       0      0.00%     70.58% # Class of executed instruction
system.cpu.op_class::FloatMult                      0      0.00%     70.58% # Class of executed instruction
system.cpu.op_class::FloatMultAcc                   0      0.00%     70.58% # Class of executed instruction
system.cpu.op_class::FloatDiv                       0      0.00%     70.58% # Class of executed instruction
system.cpu.op_class::FloatMisc                      0      0.00%     70.58% # Class of executed instruction
system.cpu.op_class::FloatSqrt                      0      0.00%     70.58% # Class of executed instruction
system.cpu.op_class::SimdAdd                      374      0.00%     70.58% # Class of executed instruction
system.cpu.op_class::SimdAddAcc                     0      0.00%     70.58% # Class of executed instruction
system.cpu.op_class::SimdAlu                       68      0.00%     70.58% # Class of executed instruction
system.cpu.op_class::SimdCmp                        0      0.00%     70.58% # Class of executed instruction
system.cpu.op_class::SimdCvt                      108      0.00%     70.58% # Class of executed instruction
system.cpu.op_class::SimdMisc                     214      0.00%     70.58% # Class of executed instruction
system.cpu.op_class::SimdMult                       0      0.00%     70.58% # Class of executed instruction
system.cpu.op_class::SimdMultAcc                    0      0.00%     70.58% # Class of executed instruction
system.cpu.op_class::SimdShift                    186      0.00%     70.58% # Class of executed instruction
system.cpu.op_class::SimdShiftAcc                   0      0.00%     70.58% # Class of executed instruction
system.cpu.op_class::SimdSqrt                       0      0.00%     70.58% # Class of executed instruction
system.cpu.op_class::SimdFloatAdd                   0      0.00%     70.58% # Class of executed instruction
system.cpu.op_class::SimdFloatAlu                   0      0.00%     70.58% # Class of executed instruction
system.cpu.op_class::SimdFloatCmp                   0      0.00%     70.58% # Class of executed instruction
system.cpu.op_class::SimdFloatCvt                   0      0.00%     70.58% # Class of executed instruction
system.cpu.op_class::SimdFloatDiv                   0      0.00%     70.58% # Class of executed instruction
system.cpu.op_class::SimdFloatMisc                  0      0.00%     70.58% # Class of executed instruction
system.cpu.op_class::SimdFloatMult                  0      0.00%     70.58% # Class of executed instruction
system.cpu.op_class::SimdFloatMultAcc               0      0.00%     70.58% # Class of executed instruction
system.cpu.op_class::SimdFloatSqrt                  0      0.00%     70.58% # Class of executed instruction
system.cpu.op_class::MemRead                382684045     25.64%     96.22% # Class of executed instruction
system.cpu.op_class::MemWrite                56342063      3.78%    100.00% # Class of executed instruction
system.cpu.op_class::FloatMemRead                  60      0.00%    100.00% # Class of executed instruction
system.cpu.op_class::FloatMemWrite                427      0.00%    100.00% # Class of executed instruction
system.cpu.op_class::IprAccess                      0      0.00%    100.00% # Class of executed instruction
system.cpu.op_class::InstPrefetch                   0      0.00%    100.00% # Class of executed instruction
system.cpu.op_class::total                 1492387768                       # Class of executed instruction
system.cpu.dcache.tags.pwrStateResidencyTicks::UNDEFINED 6029017710000                       # Cumulative time (in ticks) in various power states
system.cpu.dcache.tags.tagsinuse          1023.276078                       # Cycle average of tags in use
system.cpu.dcache.tags.total_refs           439026599                       # Total number of references to valid blocks.
system.cpu.dcache.tags.sampled_refs           1744707                       # Sample count of references to valid blocks.
system.cpu.dcache.tags.avg_refs            251.633426                       # Average number of references to valid blocks.
system.cpu.dcache.tags.warmup_cycle            759000                       # Cycle when the warmup percentage was hit.
system.cpu.dcache.tags.occ_blocks::cpu.data  1023.276078                       # Average occupied blocks per requestor
system.cpu.dcache.tags.occ_percent::cpu.data     0.999293                       # Average percentage of cache occupancy
system.cpu.dcache.tags.occ_percent::total     0.999293                       # Average percentage of cache occupancy
system.cpu.dcache.tags.occ_task_id_blocks::1024         1024                       # Occupied blocks per task id
system.cpu.dcache.tags.age_task_id_blocks_1024::0           10                       # Occupied blocks per task id
system.cpu.dcache.tags.age_task_id_blocks_1024::1           16                       # Occupied blocks per task id
system.cpu.dcache.tags.age_task_id_blocks_1024::2          301                       # Occupied blocks per task id
system.cpu.dcache.tags.age_task_id_blocks_1024::3          677                       # Occupied blocks per task id
system.cpu.dcache.tags.age_task_id_blocks_1024::4           20                       # Occupied blocks per task id
system.cpu.dcache.tags.occ_task_id_percent::1024            1                       # Percentage of cache occupancy per task id
system.cpu.dcache.tags.tag_accesses         879797905                       # Number of tag accesses
system.cpu.dcache.tags.data_accesses        879797905                       # Number of data accesses
system.cpu.dcache.pwrStateResidencyTicks::UNDEFINED 6029017710000                       # Cumulative time (in ticks) in various power states
system.cpu.dcache.ReadReq_hits::cpu.data    380958134                       # number of ReadReq hits
system.cpu.dcache.ReadReq_hits::total       380958134                       # number of ReadReq hits
system.cpu.dcache.WriteReq_hits::cpu.data       714927                       # number of WriteReq hits
system.cpu.dcache.WriteReq_hits::total         714927                       # number of WriteReq hits
system.cpu.dcache.demand_hits::cpu.data     381673061                       # number of demand (read+write) hits
system.cpu.dcache.demand_hits::total        381673061                       # number of demand (read+write) hits
system.cpu.dcache.overall_hits::cpu.data    381673061                       # number of overall hits
system.cpu.dcache.overall_hits::total       381673061                       # number of overall hits
system.cpu.dcache.ReadReq_misses::cpu.data      1725974                       # number of ReadReq misses
system.cpu.dcache.ReadReq_misses::total       1725974                       # number of ReadReq misses
system.cpu.dcache.WriteReq_misses::cpu.data     55627564                       # number of WriteReq misses
system.cpu.dcache.WriteReq_misses::total     55627564                       # number of WriteReq misses
system.cpu.dcache.demand_misses::cpu.data     57353538                       # number of demand (read+write) misses
system.cpu.dcache.demand_misses::total       57353538                       # number of demand (read+write) misses
system.cpu.dcache.overall_misses::cpu.data     57353538                       # number of overall misses
system.cpu.dcache.overall_misses::total      57353538                       # number of overall misses
system.cpu.dcache.ReadReq_miss_latency::cpu.data  61445129500                       # number of ReadReq miss cycles
system.cpu.dcache.ReadReq_miss_latency::total  61445129500                       # number of ReadReq miss cycles
system.cpu.dcache.WriteReq_miss_latency::cpu.data 4136349877500                       # number of WriteReq miss cycles
system.cpu.dcache.WriteReq_miss_latency::total 4136349877500                       # number of WriteReq miss cycles
system.cpu.dcache.demand_miss_latency::cpu.data 4197795007000                       # number of demand (read+write) miss cycles
system.cpu.dcache.demand_miss_latency::total 4197795007000                       # number of demand (read+write) miss cycles
system.cpu.dcache.overall_miss_latency::cpu.data 4197795007000                       # number of overall miss cycles
system.cpu.dcache.overall_miss_latency::total 4197795007000                       # number of overall miss cycles
system.cpu.dcache.ReadReq_accesses::cpu.data    382684108                       # number of ReadReq accesses(hits+misses)
system.cpu.dcache.ReadReq_accesses::total    382684108                       # number of ReadReq accesses(hits+misses)
system.cpu.dcache.WriteReq_accesses::cpu.data     56342491                       # number of WriteReq accesses(hits+misses)
system.cpu.dcache.WriteReq_accesses::total     56342491                       # number of WriteReq accesses(hits+misses)
system.cpu.dcache.demand_accesses::cpu.data    439026599                       # number of demand (read+write) accesses
system.cpu.dcache.demand_accesses::total    439026599                       # number of demand (read+write) accesses
system.cpu.dcache.overall_accesses::cpu.data    439026599                       # number of overall (read+write) accesses
system.cpu.dcache.overall_accesses::total    439026599                       # number of overall (read+write) accesses
system.cpu.dcache.ReadReq_miss_rate::cpu.data     0.004510                       # miss rate for ReadReq accesses
system.cpu.dcache.ReadReq_miss_rate::total     0.004510                       # miss rate for ReadReq accesses
system.cpu.dcache.WriteReq_miss_rate::cpu.data     0.987311                       # miss rate for WriteReq accesses
system.cpu.dcache.WriteReq_miss_rate::total     0.987311                       # miss rate for WriteReq accesses
system.cpu.dcache.demand_miss_rate::cpu.data     0.130638                       # miss rate for demand accesses
system.cpu.dcache.demand_miss_rate::total     0.130638                       # miss rate for demand accesses
system.cpu.dcache.overall_miss_rate::cpu.data     0.130638                       # miss rate for overall accesses
system.cpu.dcache.overall_miss_rate::total     0.130638                       # miss rate for overall accesses
system.cpu.dcache.ReadReq_avg_miss_latency::cpu.data 35600.263677                       # average ReadReq miss latency
system.cpu.dcache.ReadReq_avg_miss_latency::total 35600.263677                       # average ReadReq miss latency
system.cpu.dcache.WriteReq_avg_miss_latency::cpu.data 74357.918630                       # average WriteReq miss latency
system.cpu.dcache.WriteReq_avg_miss_latency::total 74357.918630                       # average WriteReq miss latency
system.cpu.dcache.demand_avg_miss_latency::cpu.data 73191.561556                       # average overall miss latency
system.cpu.dcache.demand_avg_miss_latency::total 73191.561556                       # average overall miss latency
system.cpu.dcache.overall_avg_miss_latency::cpu.data 73191.561556                       # average overall miss latency
system.cpu.dcache.overall_avg_miss_latency::total 73191.561556                       # average overall miss latency
system.cpu.dcache.blocked_cycles::no_mshrs            0                       # number of cycles access was blocked
system.cpu.dcache.blocked_cycles::no_targets            0                       # number of cycles access was blocked
system.cpu.dcache.blocked::no_mshrs                 0                       # number of cycles access was blocked
system.cpu.dcache.blocked::no_targets               0                       # number of cycles access was blocked
system.cpu.dcache.avg_blocked_cycles::no_mshrs          nan                       # average number of cycles each access was blocked
system.cpu.dcache.avg_blocked_cycles::no_targets          nan                       # average number of cycles each access was blocked
system.cpu.dcache.writebacks::writebacks        10763                       # number of writebacks
system.cpu.dcache.writebacks::total             10763                       # number of writebacks
system.cpu.dcache.ReadReq_mshr_misses::cpu.data      1725974                       # number of ReadReq MSHR misses
system.cpu.dcache.ReadReq_mshr_misses::total      1725974                       # number of ReadReq MSHR misses
system.cpu.dcache.WriteReq_mshr_misses::cpu.data     55627564                       # number of WriteReq MSHR misses
system.cpu.dcache.WriteReq_mshr_misses::total     55627564                       # number of WriteReq MSHR misses
system.cpu.dcache.demand_mshr_misses::cpu.data     57353538                       # number of demand (read+write) MSHR misses
system.cpu.dcache.demand_mshr_misses::total     57353538                       # number of demand (read+write) MSHR misses
system.cpu.dcache.overall_mshr_misses::cpu.data     57353538                       # number of overall MSHR misses
system.cpu.dcache.overall_mshr_misses::total     57353538                       # number of overall MSHR misses
system.cpu.dcache.ReadReq_mshr_miss_latency::cpu.data  59719155500                       # number of ReadReq MSHR miss cycles
system.cpu.dcache.ReadReq_mshr_miss_latency::total  59719155500                       # number of ReadReq MSHR miss cycles
system.cpu.dcache.WriteReq_mshr_miss_latency::cpu.data 4080722313500                       # number of WriteReq MSHR miss cycles
system.cpu.dcache.WriteReq_mshr_miss_latency::total 4080722313500                       # number of WriteReq MSHR miss cycles
system.cpu.dcache.demand_mshr_miss_latency::cpu.data 4140441469000                       # number of demand (read+write) MSHR miss cycles
system.cpu.dcache.demand_mshr_miss_latency::total 4140441469000                       # number of demand (read+write) MSHR miss cycles
system.cpu.dcache.overall_mshr_miss_latency::cpu.data 4140441469000                       # number of overall MSHR miss cycles
system.cpu.dcache.overall_mshr_miss_latency::total 4140441469000                       # number of overall MSHR miss cycles
system.cpu.dcache.ReadReq_mshr_miss_rate::cpu.data     0.004510                       # mshr miss rate for ReadReq accesses
system.cpu.dcache.ReadReq_mshr_miss_rate::total     0.004510                       # mshr miss rate for ReadReq accesses
system.cpu.dcache.WriteReq_mshr_miss_rate::cpu.data     0.987311                       # mshr miss rate for WriteReq accesses
system.cpu.dcache.WriteReq_mshr_miss_rate::total     0.987311                       # mshr miss rate for WriteReq accesses
system.cpu.dcache.demand_mshr_miss_rate::cpu.data     0.130638                       # mshr miss rate for demand accesses
system.cpu.dcache.demand_mshr_miss_rate::total     0.130638                       # mshr miss rate for demand accesses
system.cpu.dcache.overall_mshr_miss_rate::cpu.data     0.130638                       # mshr miss rate for overall accesses
system.cpu.dcache.overall_mshr_miss_rate::total     0.130638                       # mshr miss rate for overall accesses
system.cpu.dcache.ReadReq_avg_mshr_miss_latency::cpu.data 34600.263677                       # average ReadReq mshr miss latency
system.cpu.dcache.ReadReq_avg_mshr_miss_latency::total 34600.263677                       # average ReadReq mshr miss latency
system.cpu.dcache.WriteReq_avg_mshr_miss_latency::cpu.data 73357.918630                       # average WriteReq mshr miss latency
system.cpu.dcache.WriteReq_avg_mshr_miss_latency::total 73357.918630                       # average WriteReq mshr miss latency
system.cpu.dcache.demand_avg_mshr_miss_latency::cpu.data 72191.561556                       # average overall mshr miss latency
system.cpu.dcache.demand_avg_mshr_miss_latency::total 72191.561556                       # average overall mshr miss latency
system.cpu.dcache.overall_avg_mshr_miss_latency::cpu.data 72191.561556                       # average overall mshr miss latency
system.cpu.dcache.overall_avg_mshr_miss_latency::total 72191.561556                       # average overall mshr miss latency
system.cpu.dcache.replacements                1743683                       # number of replacements
system.cpu.dtb_walker_cache.tags.pwrStateResidencyTicks::UNDEFINED 6029017710000                       # Cumulative time (in ticks) in various power states
system.cpu.dtb_walker_cache.tags.tagsinuse            0                       # Cycle average of tags in use
system.cpu.dtb_walker_cache.tags.total_refs            0                       # Total number of references to valid blocks.
system.cpu.dtb_walker_cache.tags.sampled_refs            0                       # Sample count of references to valid blocks.
system.cpu.dtb_walker_cache.tags.avg_refs          nan                       # Average number of references to valid blocks.
system.cpu.dtb_walker_cache.tags.warmup_cycle            0                       # Cycle when the warmup percentage was hit.
system.cpu.dtb_walker_cache.tags.tag_accesses            0                       # Number of tag accesses
system.cpu.dtb_walker_cache.tags.data_accesses            0                       # Number of data accesses
system.cpu.dtb_walker_cache.pwrStateResidencyTicks::UNDEFINED 6029017710000                       # Cumulative time (in ticks) in various power states
system.cpu.dtb_walker_cache.blocked_cycles::no_mshrs            0                       # number of cycles access was blocked
system.cpu.dtb_walker_cache.blocked_cycles::no_targets            0                       # number of cycles access was blocked
system.cpu.dtb_walker_cache.blocked::no_mshrs            0                       # number of cycles access was blocked
system.cpu.dtb_walker_cache.blocked::no_targets            0                       # number of cycles access was blocked
system.cpu.dtb_walker_cache.avg_blocked_cycles::no_mshrs          nan                       # average number of cycles each access was blocked
system.cpu.dtb_walker_cache.avg_blocked_cycles::no_targets          nan                       # average number of cycles each access was blocked
system.cpu.dtb_walker_cache.replacements            0                       # number of replacements
system.cpu.icache.tags.pwrStateResidencyTicks::UNDEFINED 6029017710000                       # Cumulative time (in ticks) in various power states
system.cpu.icache.tags.tagsinuse           281.920171                       # Cycle average of tags in use
system.cpu.icache.tags.total_refs          1449455644                       # Total number of references to valid blocks.
system.cpu.icache.tags.sampled_refs               351                       # Sample count of references to valid blocks.
system.cpu.icache.tags.avg_refs          4129503.259259                       # Average number of references to valid blocks.
system.cpu.icache.tags.warmup_cycle            439000                       # Cycle when the warmup percentage was hit.
system.cpu.icache.tags.occ_blocks::cpu.inst   281.920171                       # Average occupied blocks per requestor
system.cpu.icache.tags.occ_percent::cpu.inst     0.550625                       # Average percentage of cache occupancy
system.cpu.icache.tags.occ_percent::total     0.550625                       # Average percentage of cache occupancy
system.cpu.icache.tags.occ_task_id_blocks::1024          311                       # Occupied blocks per task id
system.cpu.icache.tags.age_task_id_blocks_1024::0           12                       # Occupied blocks per task id
system.cpu.icache.tags.age_task_id_blocks_1024::1           27                       # Occupied blocks per task id
system.cpu.icache.tags.age_task_id_blocks_1024::4          272                       # Occupied blocks per task id
system.cpu.icache.tags.occ_task_id_percent::1024     0.607422                       # Percentage of cache occupancy per task id
system.cpu.icache.tags.tag_accesses        2898911639                       # Number of tag accesses
system.cpu.icache.tags.data_accesses       2898911639                       # Number of data accesses
system.cpu.icache.pwrStateResidencyTicks::UNDEFINED 6029017710000                       # Cumulative time (in ticks) in various power states
system.cpu.icache.ReadReq_hits::cpu.inst   1449455293                       # number of ReadReq hits
system.cpu.icache.ReadReq_hits::total      1449455293                       # number of ReadReq hits
system.cpu.icache.demand_hits::cpu.inst    1449455293                       # number of demand (read+write) hits
system.cpu.icache.demand_hits::total       1449455293                       # number of demand (read+write) hits
system.cpu.icache.overall_hits::cpu.inst   1449455293                       # number of overall hits
system.cpu.icache.overall_hits::total      1449455293                       # number of overall hits
system.cpu.icache.ReadReq_misses::cpu.inst          351                       # number of ReadReq misses
system.cpu.icache.ReadReq_misses::total           351                       # number of ReadReq misses
system.cpu.icache.demand_misses::cpu.inst          351                       # number of demand (read+write) misses
system.cpu.icache.demand_misses::total            351                       # number of demand (read+write) misses
system.cpu.icache.overall_misses::cpu.inst          351                       # number of overall misses
system.cpu.icache.overall_misses::total           351                       # number of overall misses
system.cpu.icache.ReadReq_miss_latency::cpu.inst     94353500                       # number of ReadReq miss cycles
system.cpu.icache.ReadReq_miss_latency::total     94353500                       # number of ReadReq miss cycles
system.cpu.icache.demand_miss_latency::cpu.inst     94353500                       # number of demand (read+write) miss cycles
system.cpu.icache.demand_miss_latency::total     94353500                       # number of demand (read+write) miss cycles
system.cpu.icache.overall_miss_latency::cpu.inst     94353500                       # number of overall miss cycles
system.cpu.icache.overall_miss_latency::total     94353500                       # number of overall miss cycles
system.cpu.icache.ReadReq_accesses::cpu.inst   1449455644                       # number of ReadReq accesses(hits+misses)
system.cpu.icache.ReadReq_accesses::total   1449455644                       # number of ReadReq accesses(hits+misses)
system.cpu.icache.demand_accesses::cpu.inst   1449455644                       # number of demand (read+write) accesses
system.cpu.icache.demand_accesses::total   1449455644                       # number of demand (read+write) accesses
system.cpu.icache.overall_accesses::cpu.inst   1449455644                       # number of overall (read+write) accesses
system.cpu.icache.overall_accesses::total   1449455644                       # number of overall (read+write) accesses
system.cpu.icache.ReadReq_miss_rate::cpu.inst     0.000000                       # miss rate for ReadReq accesses
system.cpu.icache.ReadReq_miss_rate::total     0.000000                       # miss rate for ReadReq accesses
system.cpu.icache.demand_miss_rate::cpu.inst     0.000000                       # miss rate for demand accesses
system.cpu.icache.demand_miss_rate::total     0.000000                       # miss rate for demand accesses
system.cpu.icache.overall_miss_rate::cpu.inst     0.000000                       # miss rate for overall accesses
system.cpu.icache.overall_miss_rate::total     0.000000                       # miss rate for overall accesses
system.cpu.icache.ReadReq_avg_miss_latency::cpu.inst 268813.390313                       # average ReadReq miss latency
system.cpu.icache.ReadReq_avg_miss_latency::total 268813.390313                       # average ReadReq miss latency
system.cpu.icache.demand_avg_miss_latency::cpu.inst 268813.390313                       # average overall miss latency
system.cpu.icache.demand_avg_miss_latency::total 268813.390313                       # average overall miss latency
system.cpu.icache.overall_avg_miss_latency::cpu.inst 268813.390313                       # average overall miss latency
system.cpu.icache.overall_avg_miss_latency::total 268813.390313                       # average overall miss latency
system.cpu.icache.blocked_cycles::no_mshrs            0                       # number of cycles access was blocked
system.cpu.icache.blocked_cycles::no_targets            0                       # number of cycles access was blocked
system.cpu.icache.blocked::no_mshrs                 0                       # number of cycles access was blocked
system.cpu.icache.blocked::no_targets               0                       # number of cycles access was blocked
system.cpu.icache.avg_blocked_cycles::no_mshrs          nan                       # average number of cycles each access was blocked
system.cpu.icache.avg_blocked_cycles::no_targets          nan                       # average number of cycles each access was blocked
system.cpu.icache.writebacks::writebacks           40                       # number of writebacks
system.cpu.icache.writebacks::total                40                       # number of writebacks
system.cpu.icache.ReadReq_mshr_misses::cpu.inst          351                       # number of ReadReq MSHR misses
system.cpu.icache.ReadReq_mshr_misses::total          351                       # number of ReadReq MSHR misses
system.cpu.icache.demand_mshr_misses::cpu.inst          351                       # number of demand (read+write) MSHR misses
system.cpu.icache.demand_mshr_misses::total          351                       # number of demand (read+write) MSHR misses
system.cpu.icache.overall_mshr_misses::cpu.inst          351                       # number of overall MSHR misses
system.cpu.icache.overall_mshr_misses::total          351                       # number of overall MSHR misses
system.cpu.icache.ReadReq_mshr_miss_latency::cpu.inst     94002500                       # number of ReadReq MSHR miss cycles
system.cpu.icache.ReadReq_mshr_miss_latency::total     94002500                       # number of ReadReq MSHR miss cycles
system.cpu.icache.demand_mshr_miss_latency::cpu.inst     94002500                       # number of demand (read+write) MSHR miss cycles
system.cpu.icache.demand_mshr_miss_latency::total     94002500                       # number of demand (read+write) MSHR miss cycles
system.cpu.icache.overall_mshr_miss_latency::cpu.inst     94002500                       # number of overall MSHR miss cycles
system.cpu.icache.overall_mshr_miss_latency::total     94002500                       # number of overall MSHR miss cycles
system.cpu.icache.ReadReq_mshr_miss_rate::cpu.inst     0.000000                       # mshr miss rate for ReadReq accesses
system.cpu.icache.ReadReq_mshr_miss_rate::total     0.000000                       # mshr miss rate for ReadReq accesses
system.cpu.icache.demand_mshr_miss_rate::cpu.inst     0.000000                       # mshr miss rate for demand accesses
system.cpu.icache.demand_mshr_miss_rate::total     0.000000                       # mshr miss rate for demand accesses
system.cpu.icache.overall_mshr_miss_rate::cpu.inst     0.000000                       # mshr miss rate for overall accesses
system.cpu.icache.overall_mshr_miss_rate::total     0.000000                       # mshr miss rate for overall accesses
system.cpu.icache.ReadReq_avg_mshr_miss_latency::cpu.inst 267813.390313                       # average ReadReq mshr miss latency
system.cpu.icache.ReadReq_avg_mshr_miss_latency::total 267813.390313                       # average ReadReq mshr miss latency
system.cpu.icache.demand_avg_mshr_miss_latency::cpu.inst 267813.390313                       # average overall mshr miss latency
system.cpu.icache.demand_avg_mshr_miss_latency::total 267813.390313                       # average overall mshr miss latency
system.cpu.icache.overall_avg_mshr_miss_latency::cpu.inst 267813.390313                       # average overall mshr miss latency
system.cpu.icache.overall_avg_mshr_miss_latency::total 267813.390313                       # average overall mshr miss latency
system.cpu.icache.replacements                     40                       # number of replacements
system.cpu.itb_walker_cache.tags.pwrStateResidencyTicks::UNDEFINED 6029017710000                       # Cumulative time (in ticks) in various power states
system.cpu.itb_walker_cache.tags.tagsinuse            0                       # Cycle average of tags in use
system.cpu.itb_walker_cache.tags.total_refs            0                       # Total number of references to valid blocks.
system.cpu.itb_walker_cache.tags.sampled_refs            0                       # Sample count of references to valid blocks.
system.cpu.itb_walker_cache.tags.avg_refs          nan                       # Average number of references to valid blocks.
system.cpu.itb_walker_cache.tags.warmup_cycle            0                       # Cycle when the warmup percentage was hit.
system.cpu.itb_walker_cache.tags.tag_accesses            0                       # Number of tag accesses
system.cpu.itb_walker_cache.tags.data_accesses            0                       # Number of data accesses
system.cpu.itb_walker_cache.pwrStateResidencyTicks::UNDEFINED 6029017710000                       # Cumulative time (in ticks) in various power states
system.cpu.itb_walker_cache.blocked_cycles::no_mshrs            0                       # number of cycles access was blocked
system.cpu.itb_walker_cache.blocked_cycles::no_targets            0                       # number of cycles access was blocked
system.cpu.itb_walker_cache.blocked::no_mshrs            0                       # number of cycles access was blocked
system.cpu.itb_walker_cache.blocked::no_targets            0                       # number of cycles access was blocked
system.cpu.itb_walker_cache.avg_blocked_cycles::no_mshrs          nan                       # average number of cycles each access was blocked
system.cpu.itb_walker_cache.avg_blocked_cycles::no_targets          nan                       # average number of cycles each access was blocked
system.cpu.itb_walker_cache.replacements            0                       # number of replacements
system.l2.tags.pwrStateResidencyTicks::UNDEFINED 6029017710000                       # Cumulative time (in ticks) in various power states
system.l2.tags.tagsinuse                  2045.883672                       # Cycle average of tags in use
system.l2.tags.total_refs                   114322237                       # Total number of references to valid blocks.
system.l2.tags.sampled_refs                   1711797                       # Sample count of references to valid blocks.
system.l2.tags.avg_refs                     66.784927                       # Average number of references to valid blocks.
system.l2.tags.warmup_cycle                    428500                       # Cycle when the warmup percentage was hit.
system.l2.tags.occ_blocks::writebacks        0.000015                       # Average occupied blocks per requestor
system.l2.tags.occ_blocks::cpu.inst          0.809358                       # Average occupied blocks per requestor
system.l2.tags.occ_blocks::cpu.data       2045.074299                       # Average occupied blocks per requestor
system.l2.tags.occ_percent::writebacks       0.000000                       # Average percentage of cache occupancy
system.l2.tags.occ_percent::cpu.inst         0.000395                       # Average percentage of cache occupancy
system.l2.tags.occ_percent::cpu.data         0.998571                       # Average percentage of cache occupancy
system.l2.tags.occ_percent::total            0.998967                       # Average percentage of cache occupancy
system.l2.tags.occ_task_id_blocks::1024          2048                       # Occupied blocks per task id
system.l2.tags.age_task_id_blocks_1024::0           27                       # Occupied blocks per task id
system.l2.tags.age_task_id_blocks_1024::1           47                       # Occupied blocks per task id
system.l2.tags.age_task_id_blocks_1024::2          301                       # Occupied blocks per task id
system.l2.tags.age_task_id_blocks_1024::3         1672                       # Occupied blocks per task id
system.l2.tags.age_task_id_blocks_1024::4            1                       # Occupied blocks per task id
system.l2.tags.occ_task_id_percent::1024            1                       # Percentage of cache occupancy per task id
system.l2.tags.tag_accesses                 919539837                       # Number of tag accesses
system.l2.tags.data_accesses                919539837                       # Number of data accesses
system.l2.pwrStateResidencyTicks::UNDEFINED 6029017710000                       # Cumulative time (in ticks) in various power states
system.l2.WritebackDirty_hits::writebacks        10763                       # number of WritebackDirty hits
system.l2.WritebackDirty_hits::total            10763                       # number of WritebackDirty hits
system.l2.WritebackClean_hits::writebacks           40                       # number of WritebackClean hits
system.l2.WritebackClean_hits::total               40                       # number of WritebackClean hits
system.l2.WriteClean_hits::writebacks        55630893                       # number of WriteClean hits
system.l2.WriteClean_hits::total             55630893                       # number of WriteClean hits
system.l2.UpgradeReq_hits::cpu.data          27810082                       # number of UpgradeReq hits
system.l2.UpgradeReq_hits::total             27810082                       # number of UpgradeReq hits
system.l2.ReadExReq_hits::cpu.data                881                       # number of ReadExReq hits
system.l2.ReadExReq_hits::total                   881                       # number of ReadExReq hits
system.l2.ReadSharedReq_hits::cpu.data          31530                       # number of ReadSharedReq hits
system.l2.ReadSharedReq_hits::total             31530                       # number of ReadSharedReq hits
system.l2.demand_hits::cpu.data                 32411                       # number of demand (read+write) hits
system.l2.demand_hits::total                    32411                       # number of demand (read+write) hits
system.l2.overall_hits::cpu.data                32411                       # number of overall hits
system.l2.overall_hits::total                   32411                       # number of overall hits
system.l2.UpgradeReq_misses::cpu.data        27798749                       # number of UpgradeReq misses
system.l2.UpgradeReq_misses::total           27798749                       # number of UpgradeReq misses
system.l2.ReadExReq_misses::cpu.data            17852                       # number of ReadExReq misses
system.l2.ReadExReq_misses::total               17852                       # number of ReadExReq misses
system.l2.ReadCleanReq_misses::cpu.inst           351                       # number of ReadCleanReq misses
system.l2.ReadCleanReq_misses::total              351                       # number of ReadCleanReq misses
system.l2.ReadSharedReq_misses::cpu.data      1694444                       # number of ReadSharedReq misses
system.l2.ReadSharedReq_misses::total         1694444                       # number of ReadSharedReq misses
system.l2.demand_misses::cpu.inst                 351                       # number of demand (read+write) misses
system.l2.demand_misses::cpu.data             1712296                       # number of demand (read+write) misses
system.l2.demand_misses::total                1712647                       # number of demand (read+write) misses
system.l2.overall_misses::cpu.inst                351                       # number of overall misses
system.l2.overall_misses::cpu.data            1712296                       # number of overall misses
system.l2.overall_misses::total               1712647                       # number of overall misses
system.l2.UpgradeReq_miss_latency::cpu.data 3694441719000                       # number of UpgradeReq miss cycles
system.l2.UpgradeReq_miss_latency::total 3694441719000                       # number of UpgradeReq miss cycles
system.l2.ReadExReq_miss_latency::cpu.data  10644108000                       # number of ReadExReq miss cycles
system.l2.ReadExReq_miss_latency::total   10644108000                       # number of ReadExReq miss cycles
system.l2.ReadCleanReq_miss_latency::cpu.inst     93465500                       # number of ReadCleanReq miss cycles
system.l2.ReadCleanReq_miss_latency::total     93465500                       # number of ReadCleanReq miss cycles
system.l2.ReadSharedReq_miss_latency::cpu.data  56799129000                       # number of ReadSharedReq miss cycles
system.l2.ReadSharedReq_miss_latency::total  56799129000                       # number of ReadSharedReq miss cycles
system.l2.demand_miss_latency::cpu.inst      93465500                       # number of demand (read+write) miss cycles
system.l2.demand_miss_latency::cpu.data   67443237000                       # number of demand (read+write) miss cycles
system.l2.demand_miss_latency::total      67536702500                       # number of demand (read+write) miss cycles
system.l2.overall_miss_latency::cpu.inst     93465500                       # number of overall miss cycles
system.l2.overall_miss_latency::cpu.data  67443237000                       # number of overall miss cycles
system.l2.overall_miss_latency::total     67536702500                       # number of overall miss cycles
system.l2.WritebackDirty_accesses::writebacks        10763                       # number of WritebackDirty accesses(hits+misses)
system.l2.WritebackDirty_accesses::total        10763                       # number of WritebackDirty accesses(hits+misses)
system.l2.WritebackClean_accesses::writebacks           40                       # number of WritebackClean accesses(hits+misses)
system.l2.WritebackClean_accesses::total           40                       # number of WritebackClean accesses(hits+misses)
system.l2.WriteClean_accesses::writebacks     55630893                       # number of WriteClean accesses(hits+misses)
system.l2.WriteClean_accesses::total         55630893                       # number of WriteClean accesses(hits+misses)
system.l2.UpgradeReq_accesses::cpu.data      55608831                       # number of UpgradeReq accesses(hits+misses)
system.l2.UpgradeReq_accesses::total         55608831                       # number of UpgradeReq accesses(hits+misses)
system.l2.ReadExReq_accesses::cpu.data          18733                       # number of ReadExReq accesses(hits+misses)
system.l2.ReadExReq_accesses::total             18733                       # number of ReadExReq accesses(hits+misses)
system.l2.ReadCleanReq_accesses::cpu.inst          351                       # number of ReadCleanReq accesses(hits+misses)
system.l2.ReadCleanReq_accesses::total            351                       # number of ReadCleanReq accesses(hits+misses)
system.l2.ReadSharedReq_accesses::cpu.data      1725974                       # number of ReadSharedReq accesses(hits+misses)
system.l2.ReadSharedReq_accesses::total       1725974                       # number of ReadSharedReq accesses(hits+misses)
system.l2.demand_accesses::cpu.inst               351                       # number of demand (read+write) accesses
system.l2.demand_accesses::cpu.data           1744707                       # number of demand (read+write) accesses
system.l2.demand_accesses::total              1745058                       # number of demand (read+write) accesses
system.l2.overall_accesses::cpu.inst              351                       # number of overall (read+write) accesses
system.l2.overall_accesses::cpu.data          1744707                       # number of overall (read+write) accesses
system.l2.overall_accesses::total             1745058                       # number of overall (read+write) accesses
system.l2.UpgradeReq_miss_rate::cpu.data     0.499898                       # miss rate for UpgradeReq accesses
system.l2.UpgradeReq_miss_rate::total        0.499898                       # miss rate for UpgradeReq accesses
system.l2.ReadExReq_miss_rate::cpu.data      0.952971                       # miss rate for ReadExReq accesses
system.l2.ReadExReq_miss_rate::total         0.952971                       # miss rate for ReadExReq accesses
system.l2.ReadCleanReq_miss_rate::cpu.inst            1                       # miss rate for ReadCleanReq accesses
system.l2.ReadCleanReq_miss_rate::total             1                       # miss rate for ReadCleanReq accesses
system.l2.ReadSharedReq_miss_rate::cpu.data     0.981732                       # miss rate for ReadSharedReq accesses
system.l2.ReadSharedReq_miss_rate::total     0.981732                       # miss rate for ReadSharedReq accesses
system.l2.demand_miss_rate::cpu.inst                1                       # miss rate for demand accesses
system.l2.demand_miss_rate::cpu.data         0.981423                       # miss rate for demand accesses
system.l2.demand_miss_rate::total            0.981427                       # miss rate for demand accesses
system.l2.overall_miss_rate::cpu.inst               1                       # miss rate for overall accesses
system.l2.overall_miss_rate::cpu.data        0.981423                       # miss rate for overall accesses
system.l2.overall_miss_rate::total           0.981427                       # miss rate for overall accesses
system.l2.UpgradeReq_avg_miss_latency::cpu.data 132899.567495                       # average UpgradeReq miss latency
system.l2.UpgradeReq_avg_miss_latency::total 132899.567495                       # average UpgradeReq miss latency
system.l2.ReadExReq_avg_miss_latency::cpu.data 596241.765629                       # average ReadExReq miss latency
system.l2.ReadExReq_avg_miss_latency::total 596241.765629                       # average ReadExReq miss latency
system.l2.ReadCleanReq_avg_miss_latency::cpu.inst 266283.475783                       # average ReadCleanReq miss latency
system.l2.ReadCleanReq_avg_miss_latency::total 266283.475783                       # average ReadCleanReq miss latency
system.l2.ReadSharedReq_avg_miss_latency::cpu.data 33520.806235                       # average ReadSharedReq miss latency
system.l2.ReadSharedReq_avg_miss_latency::total 33520.806235                       # average ReadSharedReq miss latency
system.l2.demand_avg_miss_latency::cpu.inst 266283.475783                       # average overall miss latency
system.l2.demand_avg_miss_latency::cpu.data 39387.604129                       # average overall miss latency
system.l2.demand_avg_miss_latency::total 39434.105510                       # average overall miss latency
system.l2.overall_avg_miss_latency::cpu.inst 266283.475783                       # average overall miss latency
system.l2.overall_avg_miss_latency::cpu.data 39387.604129                       # average overall miss latency
system.l2.overall_avg_miss_latency::total 39434.105510                       # average overall miss latency
system.l2.blocked_cycles::no_mshrs                  0                       # number of cycles access was blocked
system.l2.blocked_cycles::no_targets                0                       # number of cycles access was blocked
system.l2.blocked::no_mshrs                         0                       # number of cycles access was blocked
system.l2.blocked::no_targets                       0                       # number of cycles access was blocked
system.l2.avg_blocked_cycles::no_mshrs            nan                       # average number of cycles each access was blocked
system.l2.avg_blocked_cycles::no_targets          nan                       # average number of cycles each access was blocked
system.l2.writebacks::writebacks               404081                       # number of writebacks
system.l2.writebacks::total                    404081                       # number of writebacks
system.l2.CleanEvict_mshr_misses::writebacks       406268                       # number of CleanEvict MSHR misses
system.l2.CleanEvict_mshr_misses::total        406268                       # number of CleanEvict MSHR misses
system.l2.UpgradeReq_mshr_misses::cpu.data     27798749                       # number of UpgradeReq MSHR misses
system.l2.UpgradeReq_mshr_misses::total      27798749                       # number of UpgradeReq MSHR misses
system.l2.ReadExReq_mshr_misses::cpu.data        17852                       # number of ReadExReq MSHR misses
system.l2.ReadExReq_mshr_misses::total          17852                       # number of ReadExReq MSHR misses
system.l2.ReadCleanReq_mshr_misses::cpu.inst          351                       # number of ReadCleanReq MSHR misses
system.l2.ReadCleanReq_mshr_misses::total          351                       # number of ReadCleanReq MSHR misses
system.l2.ReadSharedReq_mshr_misses::cpu.data      1694444                       # number of ReadSharedReq MSHR misses
system.l2.ReadSharedReq_mshr_misses::total      1694444                       # number of ReadSharedReq MSHR misses
system.l2.demand_mshr_misses::cpu.inst            351                       # number of demand (read+write) MSHR misses
system.l2.demand_mshr_misses::cpu.data        1712296                       # number of demand (read+write) MSHR misses
system.l2.demand_mshr_misses::total           1712647                       # number of demand (read+write) MSHR misses
system.l2.overall_mshr_misses::cpu.inst           351                       # number of overall MSHR misses
system.l2.overall_mshr_misses::cpu.data       1712296                       # number of overall MSHR misses
system.l2.overall_mshr_misses::total          1712647                       # number of overall MSHR misses
system.l2.UpgradeReq_mshr_miss_latency::cpu.data 3416454229000                       # number of UpgradeReq MSHR miss cycles
system.l2.UpgradeReq_mshr_miss_latency::total 3416454229000                       # number of UpgradeReq MSHR miss cycles
system.l2.ReadExReq_mshr_miss_latency::cpu.data  10465588000                       # number of ReadExReq MSHR miss cycles
system.l2.ReadExReq_mshr_miss_latency::total  10465588000                       # number of ReadExReq MSHR miss cycles
system.l2.ReadCleanReq_mshr_miss_latency::cpu.inst     89955500                       # number of ReadCleanReq MSHR miss cycles
system.l2.ReadCleanReq_mshr_miss_latency::total     89955500                       # number of ReadCleanReq MSHR miss cycles
system.l2.ReadSharedReq_mshr_miss_latency::cpu.data  39854689000                       # number of ReadSharedReq MSHR miss cycles
system.l2.ReadSharedReq_mshr_miss_latency::total  39854689000                       # number of ReadSharedReq MSHR miss cycles
system.l2.demand_mshr_miss_latency::cpu.inst     89955500                       # number of demand (read+write) MSHR miss cycles
system.l2.demand_mshr_miss_latency::cpu.data  50320277000                       # number of demand (read+write) MSHR miss cycles
system.l2.demand_mshr_miss_latency::total  50410232500                       # number of demand (read+write) MSHR miss cycles
system.l2.overall_mshr_miss_latency::cpu.inst     89955500                       # number of overall MSHR miss cycles
system.l2.overall_mshr_miss_latency::cpu.data  50320277000                       # number of overall MSHR miss cycles
system.l2.overall_mshr_miss_latency::total  50410232500                       # number of overall MSHR miss cycles
system.l2.CleanEvict_mshr_miss_rate::writebacks          inf                       # mshr miss rate for CleanEvict accesses
system.l2.CleanEvict_mshr_miss_rate::total          inf                       # mshr miss rate for CleanEvict accesses
system.l2.UpgradeReq_mshr_miss_rate::cpu.data     0.499898                       # mshr miss rate for UpgradeReq accesses
system.l2.UpgradeReq_mshr_miss_rate::total     0.499898                       # mshr miss rate for UpgradeReq accesses
system.l2.ReadExReq_mshr_miss_rate::cpu.data     0.952971                       # mshr miss rate for ReadExReq accesses
system.l2.ReadExReq_mshr_miss_rate::total     0.952971                       # mshr miss rate for ReadExReq accesses
system.l2.ReadCleanReq_mshr_miss_rate::cpu.inst            1                       # mshr miss rate for ReadCleanReq accesses
system.l2.ReadCleanReq_mshr_miss_rate::total            1                       # mshr miss rate for ReadCleanReq accesses
system.l2.ReadSharedReq_mshr_miss_rate::cpu.data     0.981732                       # mshr miss rate for ReadSharedReq accesses
system.l2.ReadSharedReq_mshr_miss_rate::total     0.981732                       # mshr miss rate for ReadSharedReq accesses
system.l2.demand_mshr_miss_rate::cpu.inst            1                       # mshr miss rate for demand accesses
system.l2.demand_mshr_miss_rate::cpu.data     0.981423                       # mshr miss rate for demand accesses
system.l2.demand_mshr_miss_rate::total       0.981427                       # mshr miss rate for demand accesses
system.l2.overall_mshr_miss_rate::cpu.inst            1                       # mshr miss rate for overall accesses
system.l2.overall_mshr_miss_rate::cpu.data     0.981423                       # mshr miss rate for overall accesses
system.l2.overall_mshr_miss_rate::total      0.981427                       # mshr miss rate for overall accesses
system.l2.UpgradeReq_avg_mshr_miss_latency::cpu.data 122899.567495                       # average UpgradeReq mshr miss latency
system.l2.UpgradeReq_avg_mshr_miss_latency::total 122899.567495                       # average UpgradeReq mshr miss latency
system.l2.ReadExReq_avg_mshr_miss_latency::cpu.data 586241.765629                       # average ReadExReq mshr miss latency
system.l2.ReadExReq_avg_mshr_miss_latency::total 586241.765629                       # average ReadExReq mshr miss latency
system.l2.ReadCleanReq_avg_mshr_miss_latency::cpu.inst 256283.475783                       # average ReadCleanReq mshr miss latency
system.l2.ReadCleanReq_avg_mshr_miss_latency::total 256283.475783                       # average ReadCleanReq mshr miss latency
system.l2.ReadSharedReq_avg_mshr_miss_latency::cpu.data 23520.806235                       # average ReadSharedReq mshr miss latency
system.l2.ReadSharedReq_avg_mshr_miss_latency::total 23520.806235                       # average ReadSharedReq mshr miss latency
system.l2.demand_avg_mshr_miss_latency::cpu.inst 256283.475783                       # average overall mshr miss latency
system.l2.demand_avg_mshr_miss_latency::cpu.data 29387.604129                       # average overall mshr miss latency
system.l2.demand_avg_mshr_miss_latency::total 29434.105510                       # average overall mshr miss latency
system.l2.overall_avg_mshr_miss_latency::cpu.inst 256283.475783                       # average overall mshr miss latency
system.l2.overall_avg_mshr_miss_latency::cpu.data 29387.604129                       # average overall mshr miss latency
system.l2.overall_avg_mshr_miss_latency::total 29434.105510                       # average overall mshr miss latency
system.l2.replacements                        1709749                       # number of replacements
system.l3.tags.pwrStateResidencyTicks::UNDEFINED 6029017710000                       # Cumulative time (in ticks) in various power states
system.l3.tags.tagsinuse                  8141.078123                       # Cycle average of tags in use
system.l3.tags.total_refs                    59111445                       # Total number of references to valid blocks.
system.l3.tags.sampled_refs                     24660                       # Sample count of references to valid blocks.
system.l3.tags.avg_refs                   2397.057786                       # Average number of references to valid blocks.
system.l3.tags.warmup_cycle                    418000                       # Cycle when the warmup percentage was hit.
system.l3.tags.occ_blocks::writebacks        0.159493                       # Average occupied blocks per requestor
system.l3.tags.occ_blocks::cpu.inst          3.546992                       # Average occupied blocks per requestor
system.l3.tags.occ_blocks::cpu.data       8137.371638                       # Average occupied blocks per requestor
system.l3.tags.occ_percent::writebacks       0.000019                       # Average percentage of cache occupancy
system.l3.tags.occ_percent::cpu.inst         0.000433                       # Average percentage of cache occupancy
system.l3.tags.occ_percent::cpu.data         0.993331                       # Average percentage of cache occupancy
system.l3.tags.occ_percent::total            0.993784                       # Average percentage of cache occupancy
system.l3.tags.occ_task_id_blocks::1024          8192                       # Occupied blocks per task id
system.l3.tags.age_task_id_blocks_1024::0           22                       # Occupied blocks per task id
system.l3.tags.age_task_id_blocks_1024::1           42                       # Occupied blocks per task id
system.l3.tags.age_task_id_blocks_1024::2            1                       # Occupied blocks per task id
system.l3.tags.age_task_id_blocks_1024::3           10                       # Occupied blocks per task id
system.l3.tags.age_task_id_blocks_1024::4         8117                       # Occupied blocks per task id
system.l3.tags.occ_task_id_percent::1024            1                       # Percentage of cache occupancy per task id
system.l3.tags.tag_accesses                 236470452                       # Number of tag accesses
system.l3.tags.data_accesses                236470452                       # Number of data accesses
system.l3.pwrStateResidencyTicks::UNDEFINED 6029017710000                       # Cumulative time (in ticks) in various power states
system.l3.WritebackDirty_hits::writebacks       404081                       # number of WritebackDirty hits
system.l3.WritebackDirty_hits::total           404081                       # number of WritebackDirty hits
system.l3.WriteClean_hits::writebacks        27817776                       # number of WriteClean hits
system.l3.WriteClean_hits::total             27817776                       # number of WriteClean hits
system.l3.UpgradeReq_hits::cpu.data          13905475                       # number of UpgradeReq hits
system.l3.UpgradeReq_hits::total             13905475                       # number of UpgradeReq hits
system.l3.ReadSharedReq_hits::cpu.data        1687132                       # number of ReadSharedReq hits
system.l3.ReadSharedReq_hits::total           1687132                       # number of ReadSharedReq hits
system.l3.demand_hits::cpu.data               1687132                       # number of demand (read+write) hits
system.l3.demand_hits::total                  1687132                       # number of demand (read+write) hits
system.l3.overall_hits::cpu.data              1687132                       # number of overall hits
system.l3.overall_hits::total                 1687132                       # number of overall hits
system.l3.UpgradeReq_misses::cpu.data        13894134                       # number of UpgradeReq misses
system.l3.UpgradeReq_misses::total           13894134                       # number of UpgradeReq misses
system.l3.ReadExReq_misses::cpu.data            16992                       # number of ReadExReq misses
system.l3.ReadExReq_misses::total               16992                       # number of ReadExReq misses
system.l3.ReadSharedReq_misses::cpu.inst          351                       # number of ReadSharedReq misses
system.l3.ReadSharedReq_misses::cpu.data         7312                       # number of ReadSharedReq misses
system.l3.ReadSharedReq_misses::total            7663                       # number of ReadSharedReq misses
system.l3.demand_misses::cpu.inst                 351                       # number of demand (read+write) misses
system.l3.demand_misses::cpu.data               24304                       # number of demand (read+write) misses
system.l3.demand_misses::total                  24655                       # number of demand (read+write) misses
system.l3.overall_misses::cpu.inst                351                       # number of overall misses
system.l3.overall_misses::cpu.data              24304                       # number of overall misses
system.l3.overall_misses::total                 24655                       # number of overall misses
system.l3.UpgradeReq_miss_latency::cpu.data 2964765105500                       # number of UpgradeReq miss cycles
system.l3.UpgradeReq_miss_latency::total 2964765105500                       # number of UpgradeReq miss cycles
system.l3.ReadExReq_miss_latency::cpu.data  10164613000                       # number of ReadExReq miss cycles
system.l3.ReadExReq_miss_latency::total   10164613000                       # number of ReadExReq miss cycles
system.l3.ReadSharedReq_miss_latency::cpu.inst     86094500                       # number of ReadSharedReq miss cycles
system.l3.ReadSharedReq_miss_latency::cpu.data   3500919000                       # number of ReadSharedReq miss cycles
system.l3.ReadSharedReq_miss_latency::total   3587013500                       # number of ReadSharedReq miss cycles
system.l3.demand_miss_latency::cpu.inst      86094500                       # number of demand (read+write) miss cycles
system.l3.demand_miss_latency::cpu.data   13665532000                       # number of demand (read+write) miss cycles
system.l3.demand_miss_latency::total      13751626500                       # number of demand (read+write) miss cycles
system.l3.overall_miss_latency::cpu.inst     86094500                       # number of overall miss cycles
system.l3.overall_miss_latency::cpu.data  13665532000                       # number of overall miss cycles
system.l3.overall_miss_latency::total     13751626500                       # number of overall miss cycles
system.l3.WritebackDirty_accesses::writebacks       404081                       # number of WritebackDirty accesses(hits+misses)
system.l3.WritebackDirty_accesses::total       404081                       # number of WritebackDirty accesses(hits+misses)
system.l3.WriteClean_accesses::writebacks     27817776                       # number of WriteClean accesses(hits+misses)
system.l3.WriteClean_accesses::total         27817776                       # number of WriteClean accesses(hits+misses)
system.l3.UpgradeReq_accesses::cpu.data      27799609                       # number of UpgradeReq accesses(hits+misses)
system.l3.UpgradeReq_accesses::total         27799609                       # number of UpgradeReq accesses(hits+misses)
system.l3.ReadExReq_accesses::cpu.data          16992                       # number of ReadExReq accesses(hits+misses)
system.l3.ReadExReq_accesses::total             16992                       # number of ReadExReq accesses(hits+misses)
system.l3.ReadSharedReq_accesses::cpu.inst          351                       # number of ReadSharedReq accesses(hits+misses)
system.l3.ReadSharedReq_accesses::cpu.data      1694444                       # number of ReadSharedReq accesses(hits+misses)
system.l3.ReadSharedReq_accesses::total       1694795                       # number of ReadSharedReq accesses(hits+misses)
system.l3.demand_accesses::cpu.inst               351                       # number of demand (read+write) accesses
system.l3.demand_accesses::cpu.data           1711436                       # number of demand (read+write) accesses
system.l3.demand_accesses::total              1711787                       # number of demand (read+write) accesses
system.l3.overall_accesses::cpu.inst              351                       # number of overall (read+write) accesses
system.l3.overall_accesses::cpu.data          1711436                       # number of overall (read+write) accesses
system.l3.overall_accesses::total             1711787                       # number of overall (read+write) accesses
system.l3.UpgradeReq_miss_rate::cpu.data     0.499796                       # miss rate for UpgradeReq accesses
system.l3.UpgradeReq_miss_rate::total        0.499796                       # miss rate for UpgradeReq accesses
system.l3.ReadExReq_miss_rate::cpu.data             1                       # miss rate for ReadExReq accesses
system.l3.ReadExReq_miss_rate::total                1                       # miss rate for ReadExReq accesses
system.l3.ReadSharedReq_miss_rate::cpu.inst            1                       # miss rate for ReadSharedReq accesses
system.l3.ReadSharedReq_miss_rate::cpu.data     0.004315                       # miss rate for ReadSharedReq accesses
system.l3.ReadSharedReq_miss_rate::total     0.004521                       # miss rate for ReadSharedReq accesses
system.l3.demand_miss_rate::cpu.inst                1                       # miss rate for demand accesses
system.l3.demand_miss_rate::cpu.data         0.014201                       # miss rate for demand accesses
system.l3.demand_miss_rate::total            0.014403                       # miss rate for demand accesses
system.l3.overall_miss_rate::cpu.inst               1                       # miss rate for overall accesses
system.l3.overall_miss_rate::cpu.data        0.014201                       # miss rate for overall accesses
system.l3.overall_miss_rate::total           0.014403                       # miss rate for overall accesses
system.l3.UpgradeReq_avg_miss_latency::cpu.data 213382.504120                       # average UpgradeReq miss latency
system.l3.UpgradeReq_avg_miss_latency::total 213382.504120                       # average UpgradeReq miss latency
system.l3.ReadExReq_avg_miss_latency::cpu.data 598199.917608                       # average ReadExReq miss latency
system.l3.ReadExReq_avg_miss_latency::total 598199.917608                       # average ReadExReq miss latency
system.l3.ReadSharedReq_avg_miss_latency::cpu.inst 245283.475783                       # average ReadSharedReq miss latency
system.l3.ReadSharedReq_avg_miss_latency::cpu.data 478790.891685                       # average ReadSharedReq miss latency
system.l3.ReadSharedReq_avg_miss_latency::total 468095.197703                       # average ReadSharedReq miss latency
system.l3.demand_avg_miss_latency::cpu.inst 245283.475783                       # average overall miss latency
system.l3.demand_avg_miss_latency::cpu.data 562275.016458                       # average overall miss latency
system.l3.demand_avg_miss_latency::total 557762.178057                       # average overall miss latency
system.l3.overall_avg_miss_latency::cpu.inst 245283.475783                       # average overall miss latency
system.l3.overall_avg_miss_latency::cpu.data 562275.016458                       # average overall miss latency
system.l3.overall_avg_miss_latency::total 557762.178057                       # average overall miss latency
system.l3.blocked_cycles::no_mshrs                  0                       # number of cycles access was blocked
system.l3.blocked_cycles::no_targets                0                       # number of cycles access was blocked
system.l3.blocked::no_mshrs                         0                       # number of cycles access was blocked
system.l3.blocked::no_targets                       0                       # number of cycles access was blocked
system.l3.avg_blocked_cycles::no_mshrs            nan                       # average number of cycles each access was blocked
system.l3.avg_blocked_cycles::no_targets          nan                       # average number of cycles each access was blocked
system.l3.writebacks::writebacks                16142                       # number of writebacks
system.l3.writebacks::total                     16142                       # number of writebacks
system.l3.CleanEvict_mshr_misses::writebacks            3                       # number of CleanEvict MSHR misses
system.l3.CleanEvict_mshr_misses::total             3                       # number of CleanEvict MSHR misses
system.l3.UpgradeReq_mshr_misses::cpu.data     13894134                       # number of UpgradeReq MSHR misses
system.l3.UpgradeReq_mshr_misses::total      13894134                       # number of UpgradeReq MSHR misses
system.l3.ReadExReq_mshr_misses::cpu.data        16992                       # number of ReadExReq MSHR misses
system.l3.ReadExReq_mshr_misses::total          16992                       # number of ReadExReq MSHR misses
system.l3.ReadSharedReq_mshr_misses::cpu.inst          351                       # number of ReadSharedReq MSHR misses
system.l3.ReadSharedReq_mshr_misses::cpu.data         7312                       # number of ReadSharedReq MSHR misses
system.l3.ReadSharedReq_mshr_misses::total         7663                       # number of ReadSharedReq MSHR misses
system.l3.demand_mshr_misses::cpu.inst            351                       # number of demand (read+write) MSHR misses
system.l3.demand_mshr_misses::cpu.data          24304                       # number of demand (read+write) MSHR misses
system.l3.demand_mshr_misses::total             24655                       # number of demand (read+write) MSHR misses
system.l3.overall_mshr_misses::cpu.inst           351                       # number of overall MSHR misses
system.l3.overall_mshr_misses::cpu.data         24304                       # number of overall MSHR misses
system.l3.overall_mshr_misses::total            24655                       # number of overall MSHR misses
system.l3.UpgradeReq_mshr_miss_latency::cpu.data 2825823765500                       # number of UpgradeReq MSHR miss cycles
system.l3.UpgradeReq_mshr_miss_latency::total 2825823765500                       # number of UpgradeReq MSHR miss cycles
system.l3.ReadExReq_mshr_miss_latency::cpu.data   9994693000                       # number of ReadExReq MSHR miss cycles
system.l3.ReadExReq_mshr_miss_latency::total   9994693000                       # number of ReadExReq MSHR miss cycles
system.l3.ReadSharedReq_mshr_miss_latency::cpu.inst     82584500                       # number of ReadSharedReq MSHR miss cycles
system.l3.ReadSharedReq_mshr_miss_latency::cpu.data   3427799000                       # number of ReadSharedReq MSHR miss cycles
system.l3.ReadSharedReq_mshr_miss_latency::total   3510383500                       # number of ReadSharedReq MSHR miss cycles
system.l3.demand_mshr_miss_latency::cpu.inst     82584500                       # number of demand (read+write) MSHR miss cycles
system.l3.demand_mshr_miss_latency::cpu.data  13422492000                       # number of demand (read+write) MSHR miss cycles
system.l3.demand_mshr_miss_latency::total  13505076500                       # number of demand (read+write) MSHR miss cycles
system.l3.overall_mshr_miss_latency::cpu.inst     82584500                       # number of overall MSHR miss cycles
system.l3.overall_mshr_miss_latency::cpu.data  13422492000                       # number of overall MSHR miss cycles
system.l3.overall_mshr_miss_latency::total  13505076500                       # number of overall MSHR miss cycles
system.l3.CleanEvict_mshr_miss_rate::writebacks          inf                       # mshr miss rate for CleanEvict accesses
system.l3.CleanEvict_mshr_miss_rate::total          inf                       # mshr miss rate for CleanEvict accesses
system.l3.UpgradeReq_mshr_miss_rate::cpu.data     0.499796                       # mshr miss rate for UpgradeReq accesses
system.l3.UpgradeReq_mshr_miss_rate::total     0.499796                       # mshr miss rate for UpgradeReq accesses
system.l3.ReadExReq_mshr_miss_rate::cpu.data            1                       # mshr miss rate for ReadExReq accesses
system.l3.ReadExReq_mshr_miss_rate::total            1                       # mshr miss rate for ReadExReq accesses
system.l3.ReadSharedReq_mshr_miss_rate::cpu.inst            1                       # mshr miss rate for ReadSharedReq accesses
system.l3.ReadSharedReq_mshr_miss_rate::cpu.data     0.004315                       # mshr miss rate for ReadSharedReq accesses
system.l3.ReadSharedReq_mshr_miss_rate::total     0.004521                       # mshr miss rate for ReadSharedReq accesses
system.l3.demand_mshr_miss_rate::cpu.inst            1                       # mshr miss rate for demand accesses
system.l3.demand_mshr_miss_rate::cpu.data     0.014201                       # mshr miss rate for demand accesses
system.l3.demand_mshr_miss_rate::total       0.014403                       # mshr miss rate for demand accesses
system.l3.overall_mshr_miss_rate::cpu.inst            1                       # mshr miss rate for overall accesses
system.l3.overall_mshr_miss_rate::cpu.data     0.014201                       # mshr miss rate for overall accesses
system.l3.overall_mshr_miss_rate::total      0.014403                       # mshr miss rate for overall accesses
system.l3.UpgradeReq_avg_mshr_miss_latency::cpu.data 203382.504120                       # average UpgradeReq mshr miss latency
system.l3.UpgradeReq_avg_mshr_miss_latency::total 203382.504120                       # average UpgradeReq mshr miss latency
system.l3.ReadExReq_avg_mshr_miss_latency::cpu.data 588199.917608                       # average ReadExReq mshr miss latency
system.l3.ReadExReq_avg_mshr_miss_latency::total 588199.917608                       # average ReadExReq mshr miss latency
system.l3.ReadSharedReq_avg_mshr_miss_latency::cpu.inst 235283.475783                       # average ReadSharedReq mshr miss latency
system.l3.ReadSharedReq_avg_mshr_miss_latency::cpu.data 468790.891685                       # average ReadSharedReq mshr miss latency
system.l3.ReadSharedReq_avg_mshr_miss_latency::total 458095.197703                       # average ReadSharedReq mshr miss latency
system.l3.demand_avg_mshr_miss_latency::cpu.inst 235283.475783                       # average overall mshr miss latency
system.l3.demand_avg_mshr_miss_latency::cpu.data 552275.016458                       # average overall mshr miss latency
system.l3.demand_avg_mshr_miss_latency::total 547762.178057                       # average overall mshr miss latency
system.l3.overall_avg_mshr_miss_latency::cpu.inst 235283.475783                       # average overall mshr miss latency
system.l3.overall_avg_mshr_miss_latency::cpu.data 552275.016458                       # average overall mshr miss latency
system.l3.overall_avg_mshr_miss_latency::total 547762.178057                       # average overall mshr miss latency
system.l3.replacements                          16468                       # number of replacements
system.membus.snoop_filter.tot_requests      13934978                       # Total number of requests made to the snoop filter.
system.membus.snoop_filter.hit_single_requests     13910323                       # Number of requests hitting in the snoop filter with a single holder of the requested data.
system.membus.snoop_filter.hit_multi_requests            0                       # Number of requests hitting in the snoop filter with multiple (>1) holders of the requested data.
system.membus.snoop_filter.tot_snoops               0                       # Total number of snoops made to the snoop filter.
system.membus.snoop_filter.hit_single_snoops            0                       # Number of snoops hitting in the snoop filter with a single holder of the requested data.
system.membus.snoop_filter.hit_multi_snoops            0                       # Number of snoops hitting in the snoop filter with multiple (>1) holders of the requested data.
system.membus.pwrStateResidencyTicks::UNDEFINED 6029017710000                       # Cumulative time (in ticks) in various power states
system.membus.trans_dist::ReadResp               7663                       # Transaction distribution
system.membus.trans_dist::WritebackDirty        16142                       # Transaction distribution
system.membus.trans_dist::WriteClean         14285480                       # Transaction distribution
system.membus.trans_dist::CleanEvict               44                       # Transaction distribution
system.membus.trans_dist::UpgradeReq         13894134                       # Transaction distribution
system.membus.trans_dist::ReadExReq             16992                       # Transaction distribution
system.membus.trans_dist::ReadExResp            16992                       # Transaction distribution
system.membus.trans_dist::ReadSharedReq          7663                       # Transaction distribution
system.membus.pkt_count_system.l3.mem_side::system.mem_ctrls.port     28245110                       # Packet count per connected master and slave (bytes)
system.membus.pkt_count_system.l3.mem_side::total     28245110                       # Packet count per connected master and slave (bytes)
system.membus.pkt_count::total               28245110                       # Packet count per connected master and slave (bytes)
system.membus.pkt_size_system.l3.mem_side::system.mem_ctrls.port    916881728                       # Cumulative packet size per connected master and slave (bytes)
system.membus.pkt_size_system.l3.mem_side::total    916881728                       # Cumulative packet size per connected master and slave (bytes)
system.membus.pkt_size::total               916881728                       # Cumulative packet size per connected master and slave (bytes)
system.membus.snoops                                0                       # Total snoops (count)
system.membus.snoopTraffic                          0                       # Total snoop traffic (bytes)
system.membus.snoop_fanout::samples          13918789                       # Request fanout histogram
system.membus.snoop_fanout::mean                    0                       # Request fanout histogram
system.membus.snoop_fanout::stdev                   0                       # Request fanout histogram
system.membus.snoop_fanout::underflows              0      0.00%      0.00% # Request fanout histogram
system.membus.snoop_fanout::0                13918789    100.00%    100.00% # Request fanout histogram
system.membus.snoop_fanout::1                       0      0.00%    100.00% # Request fanout histogram
system.membus.snoop_fanout::overflows               0      0.00%    100.00% # Request fanout histogram
system.membus.snoop_fanout::min_value               0                       # Request fanout histogram
system.membus.snoop_fanout::max_value               0                       # Request fanout histogram
system.membus.snoop_fanout::total            13918789                       # Request fanout histogram
system.membus.reqLayer2.occupancy         97708495500                       # Layer occupancy (ticks)
system.membus.reqLayer2.utilization               1.6                       # Layer utilization (%)
system.membus.respLayer1.occupancy          124832500                       # Layer occupancy (ticks)
system.membus.respLayer1.utilization              0.0                       # Layer utilization (%)
system.tol2bus.snoop_filter.tot_requests     59097612                       # Total number of requests made to the snoop filter.
system.tol2bus.snoop_filter.hit_single_requests     57352554                       # Number of requests hitting in the snoop filter with a single holder of the requested data.
system.tol2bus.snoop_filter.hit_multi_requests            0                       # Number of requests hitting in the snoop filter with multiple (>1) holders of the requested data.
system.tol2bus.snoop_filter.tot_snoops       42510136                       # Total number of snoops made to the snoop filter.
system.tol2bus.snoop_filter.hit_single_snoops     42510136                       # Number of snoops hitting in the snoop filter with a single holder of the requested data.
system.tol2bus.snoop_filter.hit_multi_snoops            0                       # Number of snoops hitting in the snoop filter with multiple (>1) holders of the requested data.
system.tol2bus.pwrStateResidencyTicks::UNDEFINED 6029017710000                       # Cumulative time (in ticks) in various power states
system.tol2bus.trans_dist::ReadResp           1726325                       # Transaction distribution
system.tol2bus.trans_dist::WritebackDirty       414849                       # Transaction distribution
system.tol2bus.trans_dist::WritebackClean           40                       # Transaction distribution
system.tol2bus.trans_dist::WriteClean        97734149                       # Transaction distribution
system.tol2bus.trans_dist::CleanEvict         3038873                       # Transaction distribution
system.tol2bus.trans_dist::UpgradeReq        55608831                       # Transaction distribution
system.tol2bus.trans_dist::UpgradeResp       55608831                       # Transaction distribution
system.tol2bus.trans_dist::ReadExReq            18733                       # Transaction distribution
system.tol2bus.trans_dist::ReadExResp           18733                       # Transaction distribution
system.tol2bus.trans_dist::ReadCleanReq           351                       # Transaction distribution
system.tol2bus.trans_dist::ReadSharedReq      1725974                       # Transaction distribution
system.tol2bus.pkt_count_system.cpu.icache.mem_side::system.l2.cpu_side          742                       # Packet count per connected master and slave (bytes)
system.tol2bus.pkt_count_system.cpu.dcache.mem_side::system.l2.cpu_side    172081652                       # Packet count per connected master and slave (bytes)
system.tol2bus.pkt_count::total             172082394                       # Packet count per connected master and slave (bytes)
system.tol2bus.pkt_size_system.cpu.icache.mem_side::system.l2.cpu_side        25024                       # Cumulative packet size per connected master and slave (bytes)
system.tol2bus.pkt_size_system.cpu.dcache.mem_side::system.l2.cpu_side   3672727232                       # Cumulative packet size per connected master and slave (bytes)
system.tol2bus.pkt_size::total             3672752256                       # Cumulative packet size per connected master and slave (bytes)
system.tol2bus.snoops                        43813295                       # Total snoops (count)
system.tol2bus.snoopTraffic                2720469888                       # Total snoop traffic (bytes)
system.tol2bus.snoop_fanout::samples        101167184                       # Request fanout histogram
system.tol2bus.snoop_fanout::mean            0.420197                       # Request fanout histogram
system.tol2bus.snoop_fanout::stdev           0.493590                       # Request fanout histogram
system.tol2bus.snoop_fanout::underflows             0      0.00%      0.00% # Request fanout histogram
system.tol2bus.snoop_fanout::0               58657048     57.98%     57.98% # Request fanout histogram
system.tol2bus.snoop_fanout::1               42510136     42.02%    100.00% # Request fanout histogram
system.tol2bus.snoop_fanout::2                      0      0.00%    100.00% # Request fanout histogram
system.tol2bus.snoop_fanout::3                      0      0.00%    100.00% # Request fanout histogram
system.tol2bus.snoop_fanout::4                      0      0.00%    100.00% # Request fanout histogram
system.tol2bus.snoop_fanout::overflows              0      0.00%    100.00% # Request fanout histogram
system.tol2bus.snoop_fanout::min_value              0                       # Request fanout histogram
system.tol2bus.snoop_fanout::max_value              1                       # Request fanout histogram
system.tol2bus.snoop_fanout::total          101167184                       # Request fanout histogram
system.tol2bus.reqLayer0.occupancy       113005948500                       # Layer occupancy (ticks)
system.tol2bus.reqLayer0.utilization              1.9                       # Layer utilization (%)
system.tol2bus.respLayer0.occupancy            526500                       # Layer occupancy (ticks)
system.tol2bus.respLayer0.utilization             0.0                       # Layer utilization (%)
system.tol2bus.respLayer1.occupancy       30421476000                       # Layer occupancy (ticks)
system.tol2bus.respLayer1.utilization             0.5                       # Layer utilization (%)
system.tol3bus.snoop_filter.tot_requests     31293672                       # Total number of requests made to the snoop filter.
system.tol3bus.snoop_filter.hit_single_requests     29581885                       # Number of requests hitting in the snoop filter with a single holder of the requested data.
system.tol3bus.snoop_filter.hit_multi_requests            0                       # Number of requests hitting in the snoop filter with multiple (>1) holders of the requested data.
system.tol3bus.snoop_filter.tot_snoops       14285770                       # Total number of snoops made to the snoop filter.
system.tol3bus.snoop_filter.hit_single_snoops     14285770                       # Number of snoops hitting in the snoop filter with a single holder of the requested data.
system.tol3bus.snoop_filter.hit_multi_snoops            0                       # Number of snoops hitting in the snoop filter with multiple (>1) holders of the requested data.
system.tol3bus.pwrStateResidencyTicks::UNDEFINED 6029017710000                       # Cumulative time (in ticks) in various power states
system.tol3bus.trans_dist::ReadResp           1694795                       # Transaction distribution
system.tol3bus.trans_dist::WritebackDirty       420223                       # Transaction distribution
system.tol3bus.trans_dist::WriteClean        42103256                       # Transaction distribution
system.tol3bus.trans_dist::CleanEvict         1378521                       # Transaction distribution
system.tol3bus.trans_dist::UpgradeReq        27799609                       # Transaction distribution
system.tol3bus.trans_dist::UpgradeResp       27799609                       # Transaction distribution
system.tol3bus.trans_dist::ReadExReq            16992                       # Transaction distribution
system.tol3bus.trans_dist::ReadExResp           16992                       # Transaction distribution
system.tol3bus.trans_dist::ReadSharedReq      1694795                       # Transaction distribution
system.tol3bus.pkt_count_system.l2.mem_side::system.l3.cpu_side     88622844                       # Packet count per connected master and slave (bytes)
system.tol3bus.pkt_size_system.l2.mem_side::system.l3.cpu_side   1915753216                       # Cumulative packet size per connected master and slave (bytes)
system.tol3bus.snoops                        14301948                       # Total snoops (count)
system.tol3bus.snoopTraffic                 915303808                       # Total snoop traffic (bytes)
system.tol3bus.snoop_fanout::samples         43813344                       # Request fanout histogram
system.tol3bus.snoop_fanout::mean            0.326060                       # Request fanout histogram
system.tol3bus.snoop_fanout::stdev           0.468769                       # Request fanout histogram
system.tol3bus.snoop_fanout::underflows             0      0.00%      0.00% # Request fanout histogram
system.tol3bus.snoop_fanout::0               29527574     67.39%     67.39% # Request fanout histogram
system.tol3bus.snoop_fanout::1               14285770     32.61%    100.00% # Request fanout histogram
system.tol3bus.snoop_fanout::overflows              0      0.00%    100.00% # Request fanout histogram
system.tol3bus.snoop_fanout::min_value              0                       # Request fanout histogram
system.tol3bus.snoop_fanout::max_value              1                       # Request fanout histogram
system.tol3bus.snoop_fanout::total           43813344                       # Request fanout histogram
system.tol3bus.reqLayer0.occupancy        57777581000                       # Layer occupancy (ticks)
system.tol3bus.reqLayer0.utilization              1.0                       # Layer utilization (%)
system.tol3bus.respLayer0.occupancy       16467485000                       # Layer occupancy (ticks)
system.tol3bus.respLayer0.utilization             0.3                       # Layer utilization (%)

---------- End Simulation Statistics   ----------
