
---------- Begin Simulation Statistics ----------
sim_seconds                                  5.986177                       # Number of seconds simulated
sim_ticks                                5986177194000                       # Number of ticks simulated
final_tick                               5986177194000                       # Number of ticks from beginning of simulation (restored from checkpoints and never reset)
sim_freq                                 1000000000000                       # Frequency of simulated ticks
host_inst_rate                                 475613                       # Simulator instruction rate (inst/s)
host_op_rate                                   761848                       # Simulator op (including micro ops) rate (op/s)
host_tick_rate                             3055879413                       # Simulator tick rate (ticks/s)
host_mem_usage                                 665776                       # Number of bytes of host memory used
host_seconds                                  1958.91                       # Real time elapsed on the host
sim_insts                                   931679913                       # Number of instructions simulated
sim_ops                                    1492387768                       # Number of ops (including micro ops) simulated
system.voltage_domain.voltage                       1                       # Voltage in Volts
system.clk_domain.clock                          1000                       # Clock period in ticks
system.mem_ctrls.pwrStateResidencyTicks::UNDEFINED 5986177194000                       # Cumulative time (in ticks) in various power states
system.mem_ctrls.bytes_read::cpu.inst           22464                       # Number of bytes read from this memory
system.mem_ctrls.bytes_read::cpu.data         1094400                       # Number of bytes read from this memory
system.mem_ctrls.bytes_read::total            1116864                       # Number of bytes read from this memory
system.mem_ctrls.bytes_inst_read::cpu.inst        22464                       # Number of instructions bytes read from this memory
system.mem_ctrls.bytes_inst_read::total         22464                       # Number of instructions bytes read from this memory
system.mem_ctrls.bytes_written::writebacks    889998336                       # Number of bytes written to this memory
system.mem_ctrls.bytes_written::total       889998336                       # Number of bytes written to this memory
system.mem_ctrls.num_reads::cpu.inst              351                       # Number of read requests responded to by this memory
system.mem_ctrls.num_reads::cpu.data            17100                       # Number of read requests responded to by this memory
system.mem_ctrls.num_reads::total               17451                       # Number of read requests responded to by this memory
system.mem_ctrls.num_writes::writebacks      13906224                       # Number of write requests responded to by this memory
system.mem_ctrls.num_writes::total           13906224                       # Number of write requests responded to by this memory
system.mem_ctrls.bw_read::cpu.inst               3753                       # Total read bandwidth from this memory (bytes/s)
system.mem_ctrls.bw_read::cpu.data             182821                       # Total read bandwidth from this memory (bytes/s)
system.mem_ctrls.bw_read::total                186574                       # Total read bandwidth from this memory (bytes/s)
system.mem_ctrls.bw_inst_read::cpu.inst          3753                       # Instruction read bandwidth from this memory (bytes/s)
system.mem_ctrls.bw_inst_read::total             3753                       # Instruction read bandwidth from this memory (bytes/s)
system.mem_ctrls.bw_write::writebacks       148675575                       # Write bandwidth from this memory (bytes/s)
system.mem_ctrls.bw_write::total            148675575                       # Write bandwidth from this memory (bytes/s)
system.mem_ctrls.bw_total::writebacks       148675575                       # Total bandwidth to/from this memory (bytes/s)
system.mem_ctrls.bw_total::cpu.inst              3753                       # Total bandwidth to/from this memory (bytes/s)
system.mem_ctrls.bw_total::cpu.data            182821                       # Total bandwidth to/from this memory (bytes/s)
system.mem_ctrls.bw_total::total            148862149                       # Total bandwidth to/from this memory (bytes/s)
system.pwrStateResidencyTicks::UNDEFINED 5986177194000                       # Cumulative time (in ticks) in various power states
system.cpu_voltage_domain.voltage                   1                       # Voltage in Volts
system.cpu_clk_domain.clock                       500                       # Clock period in ticks
system.cpu.dtb.walker.pwrStateResidencyTicks::UNDEFINED 5986177194000                       # Cumulative time (in ticks) in various power states
system.cpu.dtb.rdAccesses                   382684108                       # TLB accesses on read requests
system.cpu.dtb.wrAccesses                    56342491                       # TLB accesses on write requests
system.cpu.dtb.rdMisses                       7936609                       # TLB misses on read requests
system.cpu.dtb.wrMisses                           272                       # TLB misses on write requests
system.cpu.apic_clk_domain.clock                 8000                       # Clock period in ticks
system.cpu.interrupts.pwrStateResidencyTicks::UNDEFINED 5986177194000                       # Cumulative time (in ticks) in various power states
system.cpu.itb.walker.pwrStateResidencyTicks::UNDEFINED 5986177194000                       # Cumulative time (in ticks) in various power states
system.cpu.itb.rdAccesses                           0                       # TLB accesses on read requests
system.cpu.itb.wrAccesses                  1449455644                       # TLB accesses on write requests
system.cpu.itb.rdMisses                             0                       # TLB misses on read requests
system.cpu.itb.wrMisses                            37                       # TLB misses on write requests
system.cpu.workload.numSyscalls                     9                       # Number of system calls
system.cpu.pwrStateResidencyTicks::ON    5986177194000                       # Cumulative time (in ticks) in various power states
system.cpu.numCycles                      11972354388                       # number of cpu cycles simulated
system.cpu.numWorkItemsStarted                      0                       # number of work items this cpu started
system.cpu.numWorkItemsCompleted                    0                       # number of work items this cpu completed
system.cpu.committedInsts                   931679913                       # Number of instructions committed
system.cpu.committedOps                    1492387768                       # Number of ops (including micro ops) committed
system.cpu.num_int_alu_accesses            1491881056                       # Number of integer alu accesses
system.cpu.num_fp_alu_accesses                   1959                       # Number of float alu accesses
system.cpu.num_vec_alu_accesses                     0                       # Number of vector alu accesses
system.cpu.num_func_calls                     1080242                       # number of times a function call or return occured
system.cpu.num_conditional_control_insts     29571459                       # number of instructions that are conditional controls
system.cpu.num_int_insts                   1491881056                       # number of integer instructions
system.cpu.num_fp_insts                          1959                       # number of float instructions
system.cpu.num_vec_insts                            0                       # number of vector instructions
system.cpu.num_int_register_reads          2934935020                       # number of times the integer registers were read
system.cpu.num_int_register_writes         1545692928                       # number of times the integer registers were written
system.cpu.num_fp_register_reads                 3779                       # number of times the floating registers were read
system.cpu.num_fp_register_writes                1484                       # number of times the floating registers were written
system.cpu.num_vec_register_reads                   0                       # number of times the vector registers were read
system.cpu.num_vec_register_writes                  0                       # number of times the vector registers were written
system.cpu.num_cc_register_reads            159199271                       # number of times the CC registers were read
system.cpu.num_cc_register_writes           523310535                       # number of times the CC registers were written
system.cpu.num_mem_refs                     439026595                       # number of memory refs
system.cpu.num_load_insts                   382684105                       # Number of load instructions
system.cpu.num_store_insts                   56342490                       # Number of store instructions
system.cpu.num_idle_cycles                          0                       # Number of idle cycles
system.cpu.num_busy_cycles                11972354388                       # Number of busy cycles
system.cpu.not_idle_fraction                        1                       # Percentage of non-idle cycles
system.cpu.idle_fraction                            0                       # Percentage of idle cycles
system.cpu.Branches                          30742411                       # Number of branches fetched
system.cpu.op_class::No_OpClass                505291      0.03%      0.03% # Class of executed instruction
system.cpu.op_class::IntAlu                 915024136     61.31%     61.35% # Class of executed instruction
system.cpu.op_class::IntMult                135270004      9.06%     70.41% # Class of executed instruction
system.cpu.op_class::IntDiv                   2560782      0.17%     70.58% # Class of executed instruction
system.cpu.op_class::FloatAdd                      10      0.00%     70.58% # Class of executed instruction
system.cpu.op_class::FloatCmp                       0      0.00%     70.58% # Class of executed instruction
system.cpu.op_class::FloatCvt                       0      0.00%     70.58% # Class of executed instruction
system.cpu.op_class::FloatMult                      0      0.00%     70.58% # Class of executed instruction
system.cpu.op_class::FloatMultAcc                   0      0.00%     70.58% # Class of executed instruction
system.cpu.op_class::FloatDiv                       0      0.00%     70.58% # Class of executed instruction
system.cpu.op_class::FloatMisc                      0      0.00%     70.58% # Class of executed instruction
system.cpu.op_class::FloatSqrt                      0      0.00%     70.58% # Class of executed instruction
system.cpu.op_class::SimdAdd                      374      0.00%     70.58% # Class of executed instruction
system.cpu.op_class::SimdAddAcc                     0      0.00%     70.58% # Class of executed instruction
system.cpu.op_class::SimdAlu                       68      0.00%     70.58% # Class of executed instruction
system.cpu.op_class::SimdCmp                        0      0.00%     70.58% # Class of executed instruction
system.cpu.op_class::SimdCvt                      108      0.00%     70.58% # Class of executed instruction
system.cpu.op_class::SimdMisc                     214      0.00%     70.58% # Class of executed instruction
system.cpu.op_class::SimdMult                       0      0.00%     70.58% # Class of executed instruction
system.cpu.op_class::SimdMultAcc                    0      0.00%     70.58% # Class of executed instruction
system.cpu.op_class::SimdShift                    186      0.00%     70.58% # Class of executed instruction
system.cpu.op_class::SimdShiftAcc                   0      0.00%     70.58% # Class of executed instruction
system.cpu.op_class::SimdSqrt                       0      0.00%     70.58% # Class of executed instruction
system.cpu.op_class::SimdFloatAdd                   0      0.00%     70.58% # Class of executed instruction
system.cpu.op_class::SimdFloatAlu                   0      0.00%     70.58% # Class of executed instruction
system.cpu.op_class::SimdFloatCmp                   0      0.00%     70.58% # Class of executed instruction
system.cpu.op_class::SimdFloatCvt                   0      0.00%     70.58% # Class of executed instruction
system.cpu.op_class::SimdFloatDiv                   0      0.00%     70.58% # Class of executed instruction
system.cpu.op_class::SimdFloatMisc                  0      0.00%     70.58% # Class of executed instruction
system.cpu.op_class::SimdFloatMult                  0      0.00%     70.58% # Class of executed instruction
system.cpu.op_class::SimdFloatMultAcc               0      0.00%     70.58% # Class of executed instruction
system.cpu.op_class::SimdFloatSqrt                  0      0.00%     70.58% # Class of executed instruction
system.cpu.op_class::MemRead                382684045     25.64%     96.22% # Class of executed instruction
system.cpu.op_class::MemWrite                56342063      3.78%    100.00% # Class of executed instruction
system.cpu.op_class::FloatMemRead                  60      0.00%    100.00% # Class of executed instruction
system.cpu.op_class::FloatMemWrite                427      0.00%    100.00% # Class of executed instruction
system.cpu.op_class::IprAccess                      0      0.00%    100.00% # Class of executed instruction
system.cpu.op_class::InstPrefetch                   0      0.00%    100.00% # Class of executed instruction
system.cpu.op_class::total                 1492387768                       # Class of executed instruction
system.cpu.dcache.tags.pwrStateResidencyTicks::UNDEFINED 5986177194000                       # Cumulative time (in ticks) in various power states
system.cpu.dcache.tags.tagsinuse          1023.270897                       # Cycle average of tags in use
system.cpu.dcache.tags.total_refs           439026599                       # Total number of references to valid blocks.
system.cpu.dcache.tags.sampled_refs           1744707                       # Sample count of references to valid blocks.
system.cpu.dcache.tags.avg_refs            251.633426                       # Average number of references to valid blocks.
system.cpu.dcache.tags.warmup_cycle            759000                       # Cycle when the warmup percentage was hit.
system.cpu.dcache.tags.occ_blocks::cpu.data  1023.270897                       # Average occupied blocks per requestor
system.cpu.dcache.tags.occ_percent::cpu.data     0.999288                       # Average percentage of cache occupancy
system.cpu.dcache.tags.occ_percent::total     0.999288                       # Average percentage of cache occupancy
system.cpu.dcache.tags.occ_task_id_blocks::1024         1024                       # Occupied blocks per task id
system.cpu.dcache.tags.age_task_id_blocks_1024::0           12                       # Occupied blocks per task id
system.cpu.dcache.tags.age_task_id_blocks_1024::1           14                       # Occupied blocks per task id
system.cpu.dcache.tags.age_task_id_blocks_1024::2          301                       # Occupied blocks per task id
system.cpu.dcache.tags.age_task_id_blocks_1024::3          677                       # Occupied blocks per task id
system.cpu.dcache.tags.age_task_id_blocks_1024::4           20                       # Occupied blocks per task id
system.cpu.dcache.tags.occ_task_id_percent::1024            1                       # Percentage of cache occupancy per task id
system.cpu.dcache.tags.tag_accesses         879797905                       # Number of tag accesses
system.cpu.dcache.tags.data_accesses        879797905                       # Number of data accesses
system.cpu.dcache.pwrStateResidencyTicks::UNDEFINED 5986177194000                       # Cumulative time (in ticks) in various power states
system.cpu.dcache.ReadReq_hits::cpu.data    380958134                       # number of ReadReq hits
system.cpu.dcache.ReadReq_hits::total       380958134                       # number of ReadReq hits
system.cpu.dcache.WriteReq_hits::cpu.data       714927                       # number of WriteReq hits
system.cpu.dcache.WriteReq_hits::total         714927                       # number of WriteReq hits
system.cpu.dcache.demand_hits::cpu.data     381673061                       # number of demand (read+write) hits
system.cpu.dcache.demand_hits::total        381673061                       # number of demand (read+write) hits
system.cpu.dcache.overall_hits::cpu.data    381673061                       # number of overall hits
system.cpu.dcache.overall_hits::total       381673061                       # number of overall hits
system.cpu.dcache.ReadReq_misses::cpu.data      1725974                       # number of ReadReq misses
system.cpu.dcache.ReadReq_misses::total       1725974                       # number of ReadReq misses
system.cpu.dcache.WriteReq_misses::cpu.data     55627564                       # number of WriteReq misses
system.cpu.dcache.WriteReq_misses::total     55627564                       # number of WriteReq misses
system.cpu.dcache.demand_misses::cpu.data     57353538                       # number of demand (read+write) misses
system.cpu.dcache.demand_misses::total       57353538                       # number of demand (read+write) misses
system.cpu.dcache.overall_misses::cpu.data     57353538                       # number of overall misses
system.cpu.dcache.overall_misses::total      57353538                       # number of overall misses
system.cpu.dcache.ReadReq_miss_latency::cpu.data  57851630500                       # number of ReadReq miss cycles
system.cpu.dcache.ReadReq_miss_latency::total  57851630500                       # number of ReadReq miss cycles
system.cpu.dcache.WriteReq_miss_latency::cpu.data 4097107325500                       # number of WriteReq miss cycles
system.cpu.dcache.WriteReq_miss_latency::total 4097107325500                       # number of WriteReq miss cycles
system.cpu.dcache.demand_miss_latency::cpu.data 4154958956000                       # number of demand (read+write) miss cycles
system.cpu.dcache.demand_miss_latency::total 4154958956000                       # number of demand (read+write) miss cycles
system.cpu.dcache.overall_miss_latency::cpu.data 4154958956000                       # number of overall miss cycles
system.cpu.dcache.overall_miss_latency::total 4154958956000                       # number of overall miss cycles
system.cpu.dcache.ReadReq_accesses::cpu.data    382684108                       # number of ReadReq accesses(hits+misses)
system.cpu.dcache.ReadReq_accesses::total    382684108                       # number of ReadReq accesses(hits+misses)
system.cpu.dcache.WriteReq_accesses::cpu.data     56342491                       # number of WriteReq accesses(hits+misses)
system.cpu.dcache.WriteReq_accesses::total     56342491                       # number of WriteReq accesses(hits+misses)
system.cpu.dcache.demand_accesses::cpu.data    439026599                       # number of demand (read+write) accesses
system.cpu.dcache.demand_accesses::total    439026599                       # number of demand (read+write) accesses
system.cpu.dcache.overall_accesses::cpu.data    439026599                       # number of overall (read+write) accesses
system.cpu.dcache.overall_accesses::total    439026599                       # number of overall (read+write) accesses
system.cpu.dcache.ReadReq_miss_rate::cpu.data     0.004510                       # miss rate for ReadReq accesses
system.cpu.dcache.ReadReq_miss_rate::total     0.004510                       # miss rate for ReadReq accesses
system.cpu.dcache.WriteReq_miss_rate::cpu.data     0.987311                       # miss rate for WriteReq accesses
system.cpu.dcache.WriteReq_miss_rate::total     0.987311                       # miss rate for WriteReq accesses
system.cpu.dcache.demand_miss_rate::cpu.data     0.130638                       # miss rate for demand accesses
system.cpu.dcache.demand_miss_rate::total     0.130638                       # miss rate for demand accesses
system.cpu.dcache.overall_miss_rate::cpu.data     0.130638                       # miss rate for overall accesses
system.cpu.dcache.overall_miss_rate::total     0.130638                       # miss rate for overall accesses
system.cpu.dcache.ReadReq_avg_miss_latency::cpu.data 33518.251434                       # average ReadReq miss latency
system.cpu.dcache.ReadReq_avg_miss_latency::total 33518.251434                       # average ReadReq miss latency
system.cpu.dcache.WriteReq_avg_miss_latency::cpu.data 73652.467067                       # average WriteReq miss latency
system.cpu.dcache.WriteReq_avg_miss_latency::total 73652.467067                       # average WriteReq miss latency
system.cpu.dcache.demand_avg_miss_latency::cpu.data 72444.684337                       # average overall miss latency
system.cpu.dcache.demand_avg_miss_latency::total 72444.684337                       # average overall miss latency
system.cpu.dcache.overall_avg_miss_latency::cpu.data 72444.684337                       # average overall miss latency
system.cpu.dcache.overall_avg_miss_latency::total 72444.684337                       # average overall miss latency
system.cpu.dcache.blocked_cycles::no_mshrs            0                       # number of cycles access was blocked
system.cpu.dcache.blocked_cycles::no_targets            0                       # number of cycles access was blocked
system.cpu.dcache.blocked::no_mshrs                 0                       # number of cycles access was blocked
system.cpu.dcache.blocked::no_targets               0                       # number of cycles access was blocked
system.cpu.dcache.avg_blocked_cycles::no_mshrs          nan                       # average number of cycles each access was blocked
system.cpu.dcache.avg_blocked_cycles::no_targets          nan                       # average number of cycles each access was blocked
system.cpu.dcache.writebacks::writebacks         5651                       # number of writebacks
system.cpu.dcache.writebacks::total              5651                       # number of writebacks
system.cpu.dcache.ReadReq_mshr_misses::cpu.data      1725974                       # number of ReadReq MSHR misses
system.cpu.dcache.ReadReq_mshr_misses::total      1725974                       # number of ReadReq MSHR misses
system.cpu.dcache.WriteReq_mshr_misses::cpu.data     55627564                       # number of WriteReq MSHR misses
system.cpu.dcache.WriteReq_mshr_misses::total     55627564                       # number of WriteReq MSHR misses
system.cpu.dcache.demand_mshr_misses::cpu.data     57353538                       # number of demand (read+write) MSHR misses
system.cpu.dcache.demand_mshr_misses::total     57353538                       # number of demand (read+write) MSHR misses
system.cpu.dcache.overall_mshr_misses::cpu.data     57353538                       # number of overall MSHR misses
system.cpu.dcache.overall_mshr_misses::total     57353538                       # number of overall MSHR misses
system.cpu.dcache.ReadReq_mshr_miss_latency::cpu.data  56125656500                       # number of ReadReq MSHR miss cycles
system.cpu.dcache.ReadReq_mshr_miss_latency::total  56125656500                       # number of ReadReq MSHR miss cycles
system.cpu.dcache.WriteReq_mshr_miss_latency::cpu.data 4041479761500                       # number of WriteReq MSHR miss cycles
system.cpu.dcache.WriteReq_mshr_miss_latency::total 4041479761500                       # number of WriteReq MSHR miss cycles
system.cpu.dcache.demand_mshr_miss_latency::cpu.data 4097605418000                       # number of demand (read+write) MSHR miss cycles
system.cpu.dcache.demand_mshr_miss_latency::total 4097605418000                       # number of demand (read+write) MSHR miss cycles
system.cpu.dcache.overall_mshr_miss_latency::cpu.data 4097605418000                       # number of overall MSHR miss cycles
system.cpu.dcache.overall_mshr_miss_latency::total 4097605418000                       # number of overall MSHR miss cycles
system.cpu.dcache.ReadReq_mshr_miss_rate::cpu.data     0.004510                       # mshr miss rate for ReadReq accesses
system.cpu.dcache.ReadReq_mshr_miss_rate::total     0.004510                       # mshr miss rate for ReadReq accesses
system.cpu.dcache.WriteReq_mshr_miss_rate::cpu.data     0.987311                       # mshr miss rate for WriteReq accesses
system.cpu.dcache.WriteReq_mshr_miss_rate::total     0.987311                       # mshr miss rate for WriteReq accesses
system.cpu.dcache.demand_mshr_miss_rate::cpu.data     0.130638                       # mshr miss rate for demand accesses
system.cpu.dcache.demand_mshr_miss_rate::total     0.130638                       # mshr miss rate for demand accesses
system.cpu.dcache.overall_mshr_miss_rate::cpu.data     0.130638                       # mshr miss rate for overall accesses
system.cpu.dcache.overall_mshr_miss_rate::total     0.130638                       # mshr miss rate for overall accesses
system.cpu.dcache.ReadReq_avg_mshr_miss_latency::cpu.data 32518.251434                       # average ReadReq mshr miss latency
system.cpu.dcache.ReadReq_avg_mshr_miss_latency::total 32518.251434                       # average ReadReq mshr miss latency
system.cpu.dcache.WriteReq_avg_mshr_miss_latency::cpu.data 72652.467067                       # average WriteReq mshr miss latency
system.cpu.dcache.WriteReq_avg_mshr_miss_latency::total 72652.467067                       # average WriteReq mshr miss latency
system.cpu.dcache.demand_avg_mshr_miss_latency::cpu.data 71444.684337                       # average overall mshr miss latency
system.cpu.dcache.demand_avg_mshr_miss_latency::total 71444.684337                       # average overall mshr miss latency
system.cpu.dcache.overall_avg_mshr_miss_latency::cpu.data 71444.684337                       # average overall mshr miss latency
system.cpu.dcache.overall_avg_mshr_miss_latency::total 71444.684337                       # average overall mshr miss latency
system.cpu.dcache.replacements                1743683                       # number of replacements
system.cpu.dtb_walker_cache.tags.pwrStateResidencyTicks::UNDEFINED 5986177194000                       # Cumulative time (in ticks) in various power states
system.cpu.dtb_walker_cache.tags.tagsinuse            0                       # Cycle average of tags in use
system.cpu.dtb_walker_cache.tags.total_refs            0                       # Total number of references to valid blocks.
system.cpu.dtb_walker_cache.tags.sampled_refs            0                       # Sample count of references to valid blocks.
system.cpu.dtb_walker_cache.tags.avg_refs          nan                       # Average number of references to valid blocks.
system.cpu.dtb_walker_cache.tags.warmup_cycle            0                       # Cycle when the warmup percentage was hit.
system.cpu.dtb_walker_cache.tags.tag_accesses            0                       # Number of tag accesses
system.cpu.dtb_walker_cache.tags.data_accesses            0                       # Number of data accesses
system.cpu.dtb_walker_cache.pwrStateResidencyTicks::UNDEFINED 5986177194000                       # Cumulative time (in ticks) in various power states
system.cpu.dtb_walker_cache.blocked_cycles::no_mshrs            0                       # number of cycles access was blocked
system.cpu.dtb_walker_cache.blocked_cycles::no_targets            0                       # number of cycles access was blocked
system.cpu.dtb_walker_cache.blocked::no_mshrs            0                       # number of cycles access was blocked
system.cpu.dtb_walker_cache.blocked::no_targets            0                       # number of cycles access was blocked
system.cpu.dtb_walker_cache.avg_blocked_cycles::no_mshrs          nan                       # average number of cycles each access was blocked
system.cpu.dtb_walker_cache.avg_blocked_cycles::no_targets          nan                       # average number of cycles each access was blocked
system.cpu.dtb_walker_cache.replacements            0                       # number of replacements
system.cpu.icache.tags.pwrStateResidencyTicks::UNDEFINED 5986177194000                       # Cumulative time (in ticks) in various power states
system.cpu.icache.tags.tagsinuse           281.919567                       # Cycle average of tags in use
system.cpu.icache.tags.total_refs          1449455644                       # Total number of references to valid blocks.
system.cpu.icache.tags.sampled_refs               351                       # Sample count of references to valid blocks.
system.cpu.icache.tags.avg_refs          4129503.259259                       # Average number of references to valid blocks.
system.cpu.icache.tags.warmup_cycle            439000                       # Cycle when the warmup percentage was hit.
system.cpu.icache.tags.occ_blocks::cpu.inst   281.919567                       # Average occupied blocks per requestor
system.cpu.icache.tags.occ_percent::cpu.inst     0.550624                       # Average percentage of cache occupancy
system.cpu.icache.tags.occ_percent::total     0.550624                       # Average percentage of cache occupancy
system.cpu.icache.tags.occ_task_id_blocks::1024          311                       # Occupied blocks per task id
system.cpu.icache.tags.age_task_id_blocks_1024::0           17                       # Occupied blocks per task id
system.cpu.icache.tags.age_task_id_blocks_1024::1           22                       # Occupied blocks per task id
system.cpu.icache.tags.age_task_id_blocks_1024::4          272                       # Occupied blocks per task id
system.cpu.icache.tags.occ_task_id_percent::1024     0.607422                       # Percentage of cache occupancy per task id
system.cpu.icache.tags.tag_accesses        2898911639                       # Number of tag accesses
system.cpu.icache.tags.data_accesses       2898911639                       # Number of data accesses
system.cpu.icache.pwrStateResidencyTicks::UNDEFINED 5986177194000                       # Cumulative time (in ticks) in various power states
system.cpu.icache.ReadReq_hits::cpu.inst   1449455293                       # number of ReadReq hits
system.cpu.icache.ReadReq_hits::total      1449455293                       # number of ReadReq hits
system.cpu.icache.demand_hits::cpu.inst    1449455293                       # number of demand (read+write) hits
system.cpu.icache.demand_hits::total       1449455293                       # number of demand (read+write) hits
system.cpu.icache.overall_hits::cpu.inst   1449455293                       # number of overall hits
system.cpu.icache.overall_hits::total      1449455293                       # number of overall hits
system.cpu.icache.ReadReq_misses::cpu.inst          351                       # number of ReadReq misses
system.cpu.icache.ReadReq_misses::total           351                       # number of ReadReq misses
system.cpu.icache.demand_misses::cpu.inst          351                       # number of demand (read+write) misses
system.cpu.icache.demand_misses::total            351                       # number of demand (read+write) misses
system.cpu.icache.overall_misses::cpu.inst          351                       # number of overall misses
system.cpu.icache.overall_misses::total           351                       # number of overall misses
system.cpu.icache.ReadReq_miss_latency::cpu.inst     89888500                       # number of ReadReq miss cycles
system.cpu.icache.ReadReq_miss_latency::total     89888500                       # number of ReadReq miss cycles
system.cpu.icache.demand_miss_latency::cpu.inst     89888500                       # number of demand (read+write) miss cycles
system.cpu.icache.demand_miss_latency::total     89888500                       # number of demand (read+write) miss cycles
system.cpu.icache.overall_miss_latency::cpu.inst     89888500                       # number of overall miss cycles
system.cpu.icache.overall_miss_latency::total     89888500                       # number of overall miss cycles
system.cpu.icache.ReadReq_accesses::cpu.inst   1449455644                       # number of ReadReq accesses(hits+misses)
system.cpu.icache.ReadReq_accesses::total   1449455644                       # number of ReadReq accesses(hits+misses)
system.cpu.icache.demand_accesses::cpu.inst   1449455644                       # number of demand (read+write) accesses
system.cpu.icache.demand_accesses::total   1449455644                       # number of demand (read+write) accesses
system.cpu.icache.overall_accesses::cpu.inst   1449455644                       # number of overall (read+write) accesses
system.cpu.icache.overall_accesses::total   1449455644                       # number of overall (read+write) accesses
system.cpu.icache.ReadReq_miss_rate::cpu.inst     0.000000                       # miss rate for ReadReq accesses
system.cpu.icache.ReadReq_miss_rate::total     0.000000                       # miss rate for ReadReq accesses
system.cpu.icache.demand_miss_rate::cpu.inst     0.000000                       # miss rate for demand accesses
system.cpu.icache.demand_miss_rate::total     0.000000                       # miss rate for demand accesses
system.cpu.icache.overall_miss_rate::cpu.inst     0.000000                       # miss rate for overall accesses
system.cpu.icache.overall_miss_rate::total     0.000000                       # miss rate for overall accesses
system.cpu.icache.ReadReq_avg_miss_latency::cpu.inst 256092.592593                       # average ReadReq miss latency
system.cpu.icache.ReadReq_avg_miss_latency::total 256092.592593                       # average ReadReq miss latency
system.cpu.icache.demand_avg_miss_latency::cpu.inst 256092.592593                       # average overall miss latency
system.cpu.icache.demand_avg_miss_latency::total 256092.592593                       # average overall miss latency
system.cpu.icache.overall_avg_miss_latency::cpu.inst 256092.592593                       # average overall miss latency
system.cpu.icache.overall_avg_miss_latency::total 256092.592593                       # average overall miss latency
system.cpu.icache.blocked_cycles::no_mshrs            0                       # number of cycles access was blocked
system.cpu.icache.blocked_cycles::no_targets            0                       # number of cycles access was blocked
system.cpu.icache.blocked::no_mshrs                 0                       # number of cycles access was blocked
system.cpu.icache.blocked::no_targets               0                       # number of cycles access was blocked
system.cpu.icache.avg_blocked_cycles::no_mshrs          nan                       # average number of cycles each access was blocked
system.cpu.icache.avg_blocked_cycles::no_targets          nan                       # average number of cycles each access was blocked
system.cpu.icache.writebacks::writebacks           40                       # number of writebacks
system.cpu.icache.writebacks::total                40                       # number of writebacks
system.cpu.icache.ReadReq_mshr_misses::cpu.inst          351                       # number of ReadReq MSHR misses
system.cpu.icache.ReadReq_mshr_misses::total          351                       # number of ReadReq MSHR misses
system.cpu.icache.demand_mshr_misses::cpu.inst          351                       # number of demand (read+write) MSHR misses
system.cpu.icache.demand_mshr_misses::total          351                       # number of demand (read+write) MSHR misses
system.cpu.icache.overall_mshr_misses::cpu.inst          351                       # number of overall MSHR misses
system.cpu.icache.overall_mshr_misses::total          351                       # number of overall MSHR misses
system.cpu.icache.ReadReq_mshr_miss_latency::cpu.inst     89537500                       # number of ReadReq MSHR miss cycles
system.cpu.icache.ReadReq_mshr_miss_latency::total     89537500                       # number of ReadReq MSHR miss cycles
system.cpu.icache.demand_mshr_miss_latency::cpu.inst     89537500                       # number of demand (read+write) MSHR miss cycles
system.cpu.icache.demand_mshr_miss_latency::total     89537500                       # number of demand (read+write) MSHR miss cycles
system.cpu.icache.overall_mshr_miss_latency::cpu.inst     89537500                       # number of overall MSHR miss cycles
system.cpu.icache.overall_mshr_miss_latency::total     89537500                       # number of overall MSHR miss cycles
system.cpu.icache.ReadReq_mshr_miss_rate::cpu.inst     0.000000                       # mshr miss rate for ReadReq accesses
system.cpu.icache.ReadReq_mshr_miss_rate::total     0.000000                       # mshr miss rate for ReadReq accesses
system.cpu.icache.demand_mshr_miss_rate::cpu.inst     0.000000                       # mshr miss rate for demand accesses
system.cpu.icache.demand_mshr_miss_rate::total     0.000000                       # mshr miss rate for demand accesses
system.cpu.icache.overall_mshr_miss_rate::cpu.inst     0.000000                       # mshr miss rate for overall accesses
system.cpu.icache.overall_mshr_miss_rate::total     0.000000                       # mshr miss rate for overall accesses
system.cpu.icache.ReadReq_avg_mshr_miss_latency::cpu.inst 255092.592593                       # average ReadReq mshr miss latency
system.cpu.icache.ReadReq_avg_mshr_miss_latency::total 255092.592593                       # average ReadReq mshr miss latency
system.cpu.icache.demand_avg_mshr_miss_latency::cpu.inst 255092.592593                       # average overall mshr miss latency
system.cpu.icache.demand_avg_mshr_miss_latency::total 255092.592593                       # average overall mshr miss latency
system.cpu.icache.overall_avg_mshr_miss_latency::cpu.inst 255092.592593                       # average overall mshr miss latency
system.cpu.icache.overall_avg_mshr_miss_latency::total 255092.592593                       # average overall mshr miss latency
system.cpu.icache.replacements                     40                       # number of replacements
system.cpu.itb_walker_cache.tags.pwrStateResidencyTicks::UNDEFINED 5986177194000                       # Cumulative time (in ticks) in various power states
system.cpu.itb_walker_cache.tags.tagsinuse            0                       # Cycle average of tags in use
system.cpu.itb_walker_cache.tags.total_refs            0                       # Total number of references to valid blocks.
system.cpu.itb_walker_cache.tags.sampled_refs            0                       # Sample count of references to valid blocks.
system.cpu.itb_walker_cache.tags.avg_refs          nan                       # Average number of references to valid blocks.
system.cpu.itb_walker_cache.tags.warmup_cycle            0                       # Cycle when the warmup percentage was hit.
system.cpu.itb_walker_cache.tags.tag_accesses            0                       # Number of tag accesses
system.cpu.itb_walker_cache.tags.data_accesses            0                       # Number of data accesses
system.cpu.itb_walker_cache.pwrStateResidencyTicks::UNDEFINED 5986177194000                       # Cumulative time (in ticks) in various power states
system.cpu.itb_walker_cache.blocked_cycles::no_mshrs            0                       # number of cycles access was blocked
system.cpu.itb_walker_cache.blocked_cycles::no_targets            0                       # number of cycles access was blocked
system.cpu.itb_walker_cache.blocked::no_mshrs            0                       # number of cycles access was blocked
system.cpu.itb_walker_cache.blocked::no_targets            0                       # number of cycles access was blocked
system.cpu.itb_walker_cache.avg_blocked_cycles::no_mshrs          nan                       # average number of cycles each access was blocked
system.cpu.itb_walker_cache.avg_blocked_cycles::no_targets          nan                       # average number of cycles each access was blocked
system.cpu.itb_walker_cache.replacements            0                       # number of replacements
system.l2.tags.pwrStateResidencyTicks::UNDEFINED 5986177194000                       # Cumulative time (in ticks) in various power states
system.l2.tags.tagsinuse                  4084.883930                       # Cycle average of tags in use
system.l2.tags.total_refs                   114711265                       # Total number of references to valid blocks.
system.l2.tags.sampled_refs                   1702136                       # Sample count of references to valid blocks.
system.l2.tags.avg_refs                     67.392538                       # Average number of references to valid blocks.
system.l2.tags.warmup_cycle                    428500                       # Cycle when the warmup percentage was hit.
system.l2.tags.occ_blocks::writebacks        0.000012                       # Average occupied blocks per requestor
system.l2.tags.occ_blocks::cpu.inst          1.839435                       # Average occupied blocks per requestor
system.l2.tags.occ_blocks::cpu.data       4083.044483                       # Average occupied blocks per requestor
system.l2.tags.occ_percent::writebacks       0.000000                       # Average percentage of cache occupancy
system.l2.tags.occ_percent::cpu.inst         0.000449                       # Average percentage of cache occupancy
system.l2.tags.occ_percent::cpu.data         0.996837                       # Average percentage of cache occupancy
system.l2.tags.occ_percent::total            0.997286                       # Average percentage of cache occupancy
system.l2.tags.occ_task_id_blocks::1024          4096                       # Occupied blocks per task id
system.l2.tags.age_task_id_blocks_1024::0           34                       # Occupied blocks per task id
system.l2.tags.age_task_id_blocks_1024::1           40                       # Occupied blocks per task id
system.l2.tags.age_task_id_blocks_1024::2          301                       # Occupied blocks per task id
system.l2.tags.age_task_id_blocks_1024::3         3078                       # Occupied blocks per task id
system.l2.tags.age_task_id_blocks_1024::4          643                       # Occupied blocks per task id
system.l2.tags.occ_task_id_percent::1024            1                       # Percentage of cache occupancy per task id
system.l2.tags.tag_accesses                 919459016                       # Number of tag accesses
system.l2.tags.data_accesses                919459016                       # Number of data accesses
system.l2.pwrStateResidencyTicks::UNDEFINED 5986177194000                       # Cumulative time (in ticks) in various power states
system.l2.WritebackDirty_hits::writebacks         5651                       # number of WritebackDirty hits
system.l2.WritebackDirty_hits::total             5651                       # number of WritebackDirty hits
system.l2.WritebackClean_hits::writebacks           40                       # number of WritebackClean hits
system.l2.WritebackClean_hits::total               40                       # number of WritebackClean hits
system.l2.WriteClean_hits::writebacks        55621998                       # number of WriteClean hits
system.l2.WriteClean_hits::total             55621998                       # number of WriteClean hits
system.l2.UpgradeReq_hits::cpu.data          27810082                       # number of UpgradeReq hits
system.l2.UpgradeReq_hits::total             27810082                       # number of UpgradeReq hits
system.l2.ReadExReq_hits::cpu.data                881                       # number of ReadExReq hits
system.l2.ReadExReq_hits::total                   881                       # number of ReadExReq hits
system.l2.ReadSharedReq_hits::cpu.data          41191                       # number of ReadSharedReq hits
system.l2.ReadSharedReq_hits::total             41191                       # number of ReadSharedReq hits
system.l2.demand_hits::cpu.data                 42072                       # number of demand (read+write) hits
system.l2.demand_hits::total                    42072                       # number of demand (read+write) hits
system.l2.overall_hits::cpu.data                42072                       # number of overall hits
system.l2.overall_hits::total                   42072                       # number of overall hits
system.l2.UpgradeReq_misses::cpu.data        27798749                       # number of UpgradeReq misses
system.l2.UpgradeReq_misses::total           27798749                       # number of UpgradeReq misses
system.l2.ReadExReq_misses::cpu.data            17852                       # number of ReadExReq misses
system.l2.ReadExReq_misses::total               17852                       # number of ReadExReq misses
system.l2.ReadCleanReq_misses::cpu.inst           351                       # number of ReadCleanReq misses
system.l2.ReadCleanReq_misses::total              351                       # number of ReadCleanReq misses
system.l2.ReadSharedReq_misses::cpu.data      1684783                       # number of ReadSharedReq misses
system.l2.ReadSharedReq_misses::total         1684783                       # number of ReadSharedReq misses
system.l2.demand_misses::cpu.inst                 351                       # number of demand (read+write) misses
system.l2.demand_misses::cpu.data             1702635                       # number of demand (read+write) misses
system.l2.demand_misses::total                1702986                       # number of demand (read+write) misses
system.l2.overall_misses::cpu.inst                351                       # number of overall misses
system.l2.overall_misses::cpu.data            1702635                       # number of overall misses
system.l2.overall_misses::total               1702986                       # number of overall misses
system.l2.UpgradeReq_miss_latency::cpu.data 3655863685500                       # number of UpgradeReq miss cycles
system.l2.UpgradeReq_miss_latency::total 3655863685500                       # number of UpgradeReq miss cycles
system.l2.ReadExReq_miss_latency::cpu.data   9979589500                       # number of ReadExReq miss cycles
system.l2.ReadExReq_miss_latency::total    9979589500                       # number of ReadExReq miss cycles
system.l2.ReadCleanReq_miss_latency::cpu.inst     89000500                       # number of ReadCleanReq miss cycles
system.l2.ReadCleanReq_miss_latency::total     89000500                       # number of ReadCleanReq miss cycles
system.l2.ReadSharedReq_miss_latency::cpu.data  53104189500                       # number of ReadSharedReq miss cycles
system.l2.ReadSharedReq_miss_latency::total  53104189500                       # number of ReadSharedReq miss cycles
system.l2.demand_miss_latency::cpu.inst      89000500                       # number of demand (read+write) miss cycles
system.l2.demand_miss_latency::cpu.data   63083779000                       # number of demand (read+write) miss cycles
system.l2.demand_miss_latency::total      63172779500                       # number of demand (read+write) miss cycles
system.l2.overall_miss_latency::cpu.inst     89000500                       # number of overall miss cycles
system.l2.overall_miss_latency::cpu.data  63083779000                       # number of overall miss cycles
system.l2.overall_miss_latency::total     63172779500                       # number of overall miss cycles
system.l2.WritebackDirty_accesses::writebacks         5651                       # number of WritebackDirty accesses(hits+misses)
system.l2.WritebackDirty_accesses::total         5651                       # number of WritebackDirty accesses(hits+misses)
system.l2.WritebackClean_accesses::writebacks           40                       # number of WritebackClean accesses(hits+misses)
system.l2.WritebackClean_accesses::total           40                       # number of WritebackClean accesses(hits+misses)
system.l2.WriteClean_accesses::writebacks     55621998                       # number of WriteClean accesses(hits+misses)
system.l2.WriteClean_accesses::total         55621998                       # number of WriteClean accesses(hits+misses)
system.l2.UpgradeReq_accesses::cpu.data      55608831                       # number of UpgradeReq accesses(hits+misses)
system.l2.UpgradeReq_accesses::total         55608831                       # number of UpgradeReq accesses(hits+misses)
system.l2.ReadExReq_accesses::cpu.data          18733                       # number of ReadExReq accesses(hits+misses)
system.l2.ReadExReq_accesses::total             18733                       # number of ReadExReq accesses(hits+misses)
system.l2.ReadCleanReq_accesses::cpu.inst          351                       # number of ReadCleanReq accesses(hits+misses)
system.l2.ReadCleanReq_accesses::total            351                       # number of ReadCleanReq accesses(hits+misses)
system.l2.ReadSharedReq_accesses::cpu.data      1725974                       # number of ReadSharedReq accesses(hits+misses)
system.l2.ReadSharedReq_accesses::total       1725974                       # number of ReadSharedReq accesses(hits+misses)
system.l2.demand_accesses::cpu.inst               351                       # number of demand (read+write) accesses
system.l2.demand_accesses::cpu.data           1744707                       # number of demand (read+write) accesses
system.l2.demand_accesses::total              1745058                       # number of demand (read+write) accesses
system.l2.overall_accesses::cpu.inst              351                       # number of overall (read+write) accesses
system.l2.overall_accesses::cpu.data          1744707                       # number of overall (read+write) accesses
system.l2.overall_accesses::total             1745058                       # number of overall (read+write) accesses
system.l2.UpgradeReq_miss_rate::cpu.data     0.499898                       # miss rate for UpgradeReq accesses
system.l2.UpgradeReq_miss_rate::total        0.499898                       # miss rate for UpgradeReq accesses
system.l2.ReadExReq_miss_rate::cpu.data      0.952971                       # miss rate for ReadExReq accesses
system.l2.ReadExReq_miss_rate::total         0.952971                       # miss rate for ReadExReq accesses
system.l2.ReadCleanReq_miss_rate::cpu.inst            1                       # miss rate for ReadCleanReq accesses
system.l2.ReadCleanReq_miss_rate::total             1                       # miss rate for ReadCleanReq accesses
system.l2.ReadSharedReq_miss_rate::cpu.data     0.976135                       # miss rate for ReadSharedReq accesses
system.l2.ReadSharedReq_miss_rate::total     0.976135                       # miss rate for ReadSharedReq accesses
system.l2.demand_miss_rate::cpu.inst                1                       # miss rate for demand accesses
system.l2.demand_miss_rate::cpu.data         0.975886                       # miss rate for demand accesses
system.l2.demand_miss_rate::total            0.975891                       # miss rate for demand accesses
system.l2.overall_miss_rate::cpu.inst               1                       # miss rate for overall accesses
system.l2.overall_miss_rate::cpu.data        0.975886                       # miss rate for overall accesses
system.l2.overall_miss_rate::total           0.975891                       # miss rate for overall accesses
system.l2.UpgradeReq_avg_miss_latency::cpu.data 131511.805999                       # average UpgradeReq miss latency
system.l2.UpgradeReq_avg_miss_latency::total 131511.805999                       # average UpgradeReq miss latency
system.l2.ReadExReq_avg_miss_latency::cpu.data 559018.009187                       # average ReadExReq miss latency
system.l2.ReadExReq_avg_miss_latency::total 559018.009187                       # average ReadExReq miss latency
system.l2.ReadCleanReq_avg_miss_latency::cpu.inst 253562.678063                       # average ReadCleanReq miss latency
system.l2.ReadCleanReq_avg_miss_latency::total 253562.678063                       # average ReadCleanReq miss latency
system.l2.ReadSharedReq_avg_miss_latency::cpu.data 31519.898705                       # average ReadSharedReq miss latency
system.l2.ReadSharedReq_avg_miss_latency::total 31519.898705                       # average ReadSharedReq miss latency
system.l2.demand_avg_miss_latency::cpu.inst 253562.678063                       # average overall miss latency
system.l2.demand_avg_miss_latency::cpu.data 37050.676745                       # average overall miss latency
system.l2.demand_avg_miss_latency::total 37095.301723                       # average overall miss latency
system.l2.overall_avg_miss_latency::cpu.inst 253562.678063                       # average overall miss latency
system.l2.overall_avg_miss_latency::cpu.data 37050.676745                       # average overall miss latency
system.l2.overall_avg_miss_latency::total 37095.301723                       # average overall miss latency
system.l2.blocked_cycles::no_mshrs                  0                       # number of cycles access was blocked
system.l2.blocked_cycles::no_targets                0                       # number of cycles access was blocked
system.l2.blocked::no_mshrs                         0                       # number of cycles access was blocked
system.l2.blocked::no_targets                       0                       # number of cycles access was blocked
system.l2.avg_blocked_cycles::no_mshrs            nan                       # average number of cycles each access was blocked
system.l2.avg_blocked_cycles::no_targets          nan                       # average number of cycles each access was blocked
system.l2.writebacks::writebacks                17052                       # number of writebacks
system.l2.writebacks::total                     17052                       # number of writebacks
system.l2.CleanEvict_mshr_misses::writebacks         8345                       # number of CleanEvict MSHR misses
system.l2.CleanEvict_mshr_misses::total          8345                       # number of CleanEvict MSHR misses
system.l2.UpgradeReq_mshr_misses::cpu.data     27798749                       # number of UpgradeReq MSHR misses
system.l2.UpgradeReq_mshr_misses::total      27798749                       # number of UpgradeReq MSHR misses
system.l2.ReadExReq_mshr_misses::cpu.data        17852                       # number of ReadExReq MSHR misses
system.l2.ReadExReq_mshr_misses::total          17852                       # number of ReadExReq MSHR misses
system.l2.ReadCleanReq_mshr_misses::cpu.inst          351                       # number of ReadCleanReq MSHR misses
system.l2.ReadCleanReq_mshr_misses::total          351                       # number of ReadCleanReq MSHR misses
system.l2.ReadSharedReq_mshr_misses::cpu.data      1684783                       # number of ReadSharedReq MSHR misses
system.l2.ReadSharedReq_mshr_misses::total      1684783                       # number of ReadSharedReq MSHR misses
system.l2.demand_mshr_misses::cpu.inst            351                       # number of demand (read+write) MSHR misses
system.l2.demand_mshr_misses::cpu.data        1702635                       # number of demand (read+write) MSHR misses
system.l2.demand_mshr_misses::total           1702986                       # number of demand (read+write) MSHR misses
system.l2.overall_mshr_misses::cpu.inst           351                       # number of overall MSHR misses
system.l2.overall_mshr_misses::cpu.data       1702635                       # number of overall MSHR misses
system.l2.overall_mshr_misses::total          1702986                       # number of overall MSHR misses
system.l2.UpgradeReq_mshr_miss_latency::cpu.data 3377876195500                       # number of UpgradeReq MSHR miss cycles
system.l2.UpgradeReq_mshr_miss_latency::total 3377876195500                       # number of UpgradeReq MSHR miss cycles
system.l2.ReadExReq_mshr_miss_latency::cpu.data   9801069500                       # number of ReadExReq MSHR miss cycles
system.l2.ReadExReq_mshr_miss_latency::total   9801069500                       # number of ReadExReq MSHR miss cycles
system.l2.ReadCleanReq_mshr_miss_latency::cpu.inst     85490500                       # number of ReadCleanReq MSHR miss cycles
system.l2.ReadCleanReq_mshr_miss_latency::total     85490500                       # number of ReadCleanReq MSHR miss cycles
system.l2.ReadSharedReq_mshr_miss_latency::cpu.data  36256359500                       # number of ReadSharedReq MSHR miss cycles
system.l2.ReadSharedReq_mshr_miss_latency::total  36256359500                       # number of ReadSharedReq MSHR miss cycles
system.l2.demand_mshr_miss_latency::cpu.inst     85490500                       # number of demand (read+write) MSHR miss cycles
system.l2.demand_mshr_miss_latency::cpu.data  46057429000                       # number of demand (read+write) MSHR miss cycles
system.l2.demand_mshr_miss_latency::total  46142919500                       # number of demand (read+write) MSHR miss cycles
system.l2.overall_mshr_miss_latency::cpu.inst     85490500                       # number of overall MSHR miss cycles
system.l2.overall_mshr_miss_latency::cpu.data  46057429000                       # number of overall MSHR miss cycles
system.l2.overall_mshr_miss_latency::total  46142919500                       # number of overall MSHR miss cycles
system.l2.CleanEvict_mshr_miss_rate::writebacks          inf                       # mshr miss rate for CleanEvict accesses
system.l2.CleanEvict_mshr_miss_rate::total          inf                       # mshr miss rate for CleanEvict accesses
system.l2.UpgradeReq_mshr_miss_rate::cpu.data     0.499898                       # mshr miss rate for UpgradeReq accesses
system.l2.UpgradeReq_mshr_miss_rate::total     0.499898                       # mshr miss rate for UpgradeReq accesses
system.l2.ReadExReq_mshr_miss_rate::cpu.data     0.952971                       # mshr miss rate for ReadExReq accesses
system.l2.ReadExReq_mshr_miss_rate::total     0.952971                       # mshr miss rate for ReadExReq accesses
system.l2.ReadCleanReq_mshr_miss_rate::cpu.inst            1                       # mshr miss rate for ReadCleanReq accesses
system.l2.ReadCleanReq_mshr_miss_rate::total            1                       # mshr miss rate for ReadCleanReq accesses
system.l2.ReadSharedReq_mshr_miss_rate::cpu.data     0.976135                       # mshr miss rate for ReadSharedReq accesses
system.l2.ReadSharedReq_mshr_miss_rate::total     0.976135                       # mshr miss rate for ReadSharedReq accesses
system.l2.demand_mshr_miss_rate::cpu.inst            1                       # mshr miss rate for demand accesses
system.l2.demand_mshr_miss_rate::cpu.data     0.975886                       # mshr miss rate for demand accesses
system.l2.demand_mshr_miss_rate::total       0.975891                       # mshr miss rate for demand accesses
system.l2.overall_mshr_miss_rate::cpu.inst            1                       # mshr miss rate for overall accesses
system.l2.overall_mshr_miss_rate::cpu.data     0.975886                       # mshr miss rate for overall accesses
system.l2.overall_mshr_miss_rate::total      0.975891                       # mshr miss rate for overall accesses
system.l2.UpgradeReq_avg_mshr_miss_latency::cpu.data 121511.805999                       # average UpgradeReq mshr miss latency
system.l2.UpgradeReq_avg_mshr_miss_latency::total 121511.805999                       # average UpgradeReq mshr miss latency
system.l2.ReadExReq_avg_mshr_miss_latency::cpu.data 549018.009187                       # average ReadExReq mshr miss latency
system.l2.ReadExReq_avg_mshr_miss_latency::total 549018.009187                       # average ReadExReq mshr miss latency
system.l2.ReadCleanReq_avg_mshr_miss_latency::cpu.inst 243562.678063                       # average ReadCleanReq mshr miss latency
system.l2.ReadCleanReq_avg_mshr_miss_latency::total 243562.678063                       # average ReadCleanReq mshr miss latency
system.l2.ReadSharedReq_avg_mshr_miss_latency::cpu.data 21519.898705                       # average ReadSharedReq mshr miss latency
system.l2.ReadSharedReq_avg_mshr_miss_latency::total 21519.898705                       # average ReadSharedReq mshr miss latency
system.l2.demand_avg_mshr_miss_latency::cpu.inst 243562.678063                       # average overall mshr miss latency
system.l2.demand_avg_mshr_miss_latency::cpu.data 27050.676745                       # average overall mshr miss latency
system.l2.demand_avg_mshr_miss_latency::total 27095.301723                       # average overall mshr miss latency
system.l2.overall_avg_mshr_miss_latency::cpu.inst 243562.678063                       # average overall mshr miss latency
system.l2.overall_avg_mshr_miss_latency::cpu.data 27050.676745                       # average overall mshr miss latency
system.l2.overall_avg_mshr_miss_latency::total 27095.301723                       # average overall mshr miss latency
system.l2.replacements                        1698040                       # number of replacements
system.l3.tags.pwrStateResidencyTicks::UNDEFINED 5986177194000                       # Cumulative time (in ticks) in various power states
system.l3.tags.tagsinuse                 14283.067933                       # Cycle average of tags in use
system.l3.tags.total_refs                    59010968                       # Total number of references to valid blocks.
system.l3.tags.sampled_refs                     17451                       # Sample count of references to valid blocks.
system.l3.tags.avg_refs                   3381.523580                       # Average number of references to valid blocks.
system.l3.tags.warmup_cycle                    418000                       # Cycle when the warmup percentage was hit.
system.l3.tags.occ_blocks::cpu.inst        239.539176                       # Average occupied blocks per requestor
system.l3.tags.occ_blocks::cpu.data      14043.528757                       # Average occupied blocks per requestor
system.l3.tags.occ_percent::cpu.inst         0.014620                       # Average percentage of cache occupancy
system.l3.tags.occ_percent::cpu.data         0.857149                       # Average percentage of cache occupancy
system.l3.tags.occ_percent::total            0.871769                       # Average percentage of cache occupancy
system.l3.tags.occ_task_id_blocks::1024         16384                       # Occupied blocks per task id
system.l3.tags.age_task_id_blocks_1024::0           28                       # Occupied blocks per task id
system.l3.tags.age_task_id_blocks_1024::1           35                       # Occupied blocks per task id
system.l3.tags.age_task_id_blocks_1024::2            1                       # Occupied blocks per task id
system.l3.tags.age_task_id_blocks_1024::3           10                       # Occupied blocks per task id
system.l3.tags.age_task_id_blocks_1024::4        16310                       # Occupied blocks per task id
system.l3.tags.occ_task_id_percent::1024            1                       # Percentage of cache occupancy per task id
system.l3.tags.tag_accesses                 944192939                       # Number of tag accesses
system.l3.tags.data_accesses                944192939                       # Number of data accesses
system.l3.pwrStateResidencyTicks::UNDEFINED 5986177194000                       # Cumulative time (in ticks) in various power states
system.l3.WritebackDirty_hits::writebacks        17052                       # number of WritebackDirty hits
system.l3.WritebackDirty_hits::total            17052                       # number of WritebackDirty hits
system.l3.WriteClean_hits::writebacks        27810963                       # number of WriteClean hits
system.l3.WriteClean_hits::total             27810963                       # number of WriteClean hits
system.l3.UpgradeReq_hits::cpu.data          13905475                       # number of UpgradeReq hits
system.l3.UpgradeReq_hits::total             13905475                       # number of UpgradeReq hits
system.l3.ReadSharedReq_hits::cpu.data        1684675                       # number of ReadSharedReq hits
system.l3.ReadSharedReq_hits::total           1684675                       # number of ReadSharedReq hits
system.l3.demand_hits::cpu.data               1684675                       # number of demand (read+write) hits
system.l3.demand_hits::total                  1684675                       # number of demand (read+write) hits
system.l3.overall_hits::cpu.data              1684675                       # number of overall hits
system.l3.overall_hits::total                 1684675                       # number of overall hits
system.l3.UpgradeReq_misses::cpu.data        13894134                       # number of UpgradeReq misses
system.l3.UpgradeReq_misses::total           13894134                       # number of UpgradeReq misses
system.l3.ReadExReq_misses::cpu.data            16992                       # number of ReadExReq misses
system.l3.ReadExReq_misses::total               16992                       # number of ReadExReq misses
system.l3.ReadSharedReq_misses::cpu.inst          351                       # number of ReadSharedReq misses
system.l3.ReadSharedReq_misses::cpu.data          108                       # number of ReadSharedReq misses
system.l3.ReadSharedReq_misses::total             459                       # number of ReadSharedReq misses
system.l3.demand_misses::cpu.inst                 351                       # number of demand (read+write) misses
system.l3.demand_misses::cpu.data               17100                       # number of demand (read+write) misses
system.l3.demand_misses::total                  17451                       # number of demand (read+write) misses
system.l3.overall_misses::cpu.inst                351                       # number of overall misses
system.l3.overall_misses::cpu.data              17100                       # number of overall misses
system.l3.overall_misses::total                 17451                       # number of overall misses
system.l3.UpgradeReq_miss_latency::cpu.data 2926176780000                       # number of UpgradeReq miss cycles
system.l3.UpgradeReq_miss_latency::total 2926176780000                       # number of UpgradeReq miss cycles
system.l3.ReadExReq_miss_latency::cpu.data   9510386500                       # number of ReadExReq miss cycles
system.l3.ReadExReq_miss_latency::total    9510386500                       # number of ReadExReq miss cycles
system.l3.ReadSharedReq_miss_latency::cpu.inst     81629500                       # number of ReadSharedReq miss cycles
system.l3.ReadSharedReq_miss_latency::cpu.data     34659000                       # number of ReadSharedReq miss cycles
system.l3.ReadSharedReq_miss_latency::total    116288500                       # number of ReadSharedReq miss cycles
system.l3.demand_miss_latency::cpu.inst      81629500                       # number of demand (read+write) miss cycles
system.l3.demand_miss_latency::cpu.data    9545045500                       # number of demand (read+write) miss cycles
system.l3.demand_miss_latency::total       9626675000                       # number of demand (read+write) miss cycles
system.l3.overall_miss_latency::cpu.inst     81629500                       # number of overall miss cycles
system.l3.overall_miss_latency::cpu.data   9545045500                       # number of overall miss cycles
system.l3.overall_miss_latency::total      9626675000                       # number of overall miss cycles
system.l3.WritebackDirty_accesses::writebacks        17052                       # number of WritebackDirty accesses(hits+misses)
system.l3.WritebackDirty_accesses::total        17052                       # number of WritebackDirty accesses(hits+misses)
system.l3.WriteClean_accesses::writebacks     27810963                       # number of WriteClean accesses(hits+misses)
system.l3.WriteClean_accesses::total         27810963                       # number of WriteClean accesses(hits+misses)
system.l3.UpgradeReq_accesses::cpu.data      27799609                       # number of UpgradeReq accesses(hits+misses)
system.l3.UpgradeReq_accesses::total         27799609                       # number of UpgradeReq accesses(hits+misses)
system.l3.ReadExReq_accesses::cpu.data          16992                       # number of ReadExReq accesses(hits+misses)
system.l3.ReadExReq_accesses::total             16992                       # number of ReadExReq accesses(hits+misses)
system.l3.ReadSharedReq_accesses::cpu.inst          351                       # number of ReadSharedReq accesses(hits+misses)
system.l3.ReadSharedReq_accesses::cpu.data      1684783                       # number of ReadSharedReq accesses(hits+misses)
system.l3.ReadSharedReq_accesses::total       1685134                       # number of ReadSharedReq accesses(hits+misses)
system.l3.demand_accesses::cpu.inst               351                       # number of demand (read+write) accesses
system.l3.demand_accesses::cpu.data           1701775                       # number of demand (read+write) accesses
system.l3.demand_accesses::total              1702126                       # number of demand (read+write) accesses
system.l3.overall_accesses::cpu.inst              351                       # number of overall (read+write) accesses
system.l3.overall_accesses::cpu.data          1701775                       # number of overall (read+write) accesses
system.l3.overall_accesses::total             1702126                       # number of overall (read+write) accesses
system.l3.UpgradeReq_miss_rate::cpu.data     0.499796                       # miss rate for UpgradeReq accesses
system.l3.UpgradeReq_miss_rate::total        0.499796                       # miss rate for UpgradeReq accesses
system.l3.ReadExReq_miss_rate::cpu.data             1                       # miss rate for ReadExReq accesses
system.l3.ReadExReq_miss_rate::total                1                       # miss rate for ReadExReq accesses
system.l3.ReadSharedReq_miss_rate::cpu.inst            1                       # miss rate for ReadSharedReq accesses
system.l3.ReadSharedReq_miss_rate::cpu.data     0.000064                       # miss rate for ReadSharedReq accesses
system.l3.ReadSharedReq_miss_rate::total     0.000272                       # miss rate for ReadSharedReq accesses
system.l3.demand_miss_rate::cpu.inst                1                       # miss rate for demand accesses
system.l3.demand_miss_rate::cpu.data         0.010048                       # miss rate for demand accesses
system.l3.demand_miss_rate::total            0.010252                       # miss rate for demand accesses
system.l3.overall_miss_rate::cpu.inst               1                       # miss rate for overall accesses
system.l3.overall_miss_rate::cpu.data        0.010048                       # miss rate for overall accesses
system.l3.overall_miss_rate::total           0.010252                       # miss rate for overall accesses
system.l3.UpgradeReq_avg_miss_latency::cpu.data 210605.193530                       # average UpgradeReq miss latency
system.l3.UpgradeReq_avg_miss_latency::total 210605.193530                       # average UpgradeReq miss latency
system.l3.ReadExReq_avg_miss_latency::cpu.data 559697.887241                       # average ReadExReq miss latency
system.l3.ReadExReq_avg_miss_latency::total 559697.887241                       # average ReadExReq miss latency
system.l3.ReadSharedReq_avg_miss_latency::cpu.inst 232562.678063                       # average ReadSharedReq miss latency
system.l3.ReadSharedReq_avg_miss_latency::cpu.data 320916.666667                       # average ReadSharedReq miss latency
system.l3.ReadSharedReq_avg_miss_latency::total 253351.851852                       # average ReadSharedReq miss latency
system.l3.demand_avg_miss_latency::cpu.inst 232562.678063                       # average overall miss latency
system.l3.demand_avg_miss_latency::cpu.data 558189.795322                       # average overall miss latency
system.l3.demand_avg_miss_latency::total 551640.307146                       # average overall miss latency
system.l3.overall_avg_miss_latency::cpu.inst 232562.678063                       # average overall miss latency
system.l3.overall_avg_miss_latency::cpu.data 558189.795322                       # average overall miss latency
system.l3.overall_avg_miss_latency::total 551640.307146                       # average overall miss latency
system.l3.blocked_cycles::no_mshrs                  0                       # number of cycles access was blocked
system.l3.blocked_cycles::no_targets                0                       # number of cycles access was blocked
system.l3.blocked::no_mshrs                         0                       # number of cycles access was blocked
system.l3.blocked::no_targets                       0                       # number of cycles access was blocked
system.l3.avg_blocked_cycles::no_mshrs            nan                       # average number of cycles each access was blocked
system.l3.avg_blocked_cycles::no_targets          nan                       # average number of cycles each access was blocked
system.l3.writebacks::writebacks                  748                       # number of writebacks
system.l3.writebacks::total                       748                       # number of writebacks
system.l3.UpgradeReq_mshr_misses::cpu.data     13894134                       # number of UpgradeReq MSHR misses
system.l3.UpgradeReq_mshr_misses::total      13894134                       # number of UpgradeReq MSHR misses
system.l3.ReadExReq_mshr_misses::cpu.data        16992                       # number of ReadExReq MSHR misses
system.l3.ReadExReq_mshr_misses::total          16992                       # number of ReadExReq MSHR misses
system.l3.ReadSharedReq_mshr_misses::cpu.inst          351                       # number of ReadSharedReq MSHR misses
system.l3.ReadSharedReq_mshr_misses::cpu.data          108                       # number of ReadSharedReq MSHR misses
system.l3.ReadSharedReq_mshr_misses::total          459                       # number of ReadSharedReq MSHR misses
system.l3.demand_mshr_misses::cpu.inst            351                       # number of demand (read+write) MSHR misses
system.l3.demand_mshr_misses::cpu.data          17100                       # number of demand (read+write) MSHR misses
system.l3.demand_mshr_misses::total             17451                       # number of demand (read+write) MSHR misses
system.l3.overall_mshr_misses::cpu.inst           351                       # number of overall MSHR misses
system.l3.overall_mshr_misses::cpu.data         17100                       # number of overall MSHR misses
system.l3.overall_mshr_misses::total            17451                       # number of overall MSHR misses
system.l3.UpgradeReq_mshr_miss_latency::cpu.data 2787235440000                       # number of UpgradeReq MSHR miss cycles
system.l3.UpgradeReq_mshr_miss_latency::total 2787235440000                       # number of UpgradeReq MSHR miss cycles
system.l3.ReadExReq_mshr_miss_latency::cpu.data   9340466500                       # number of ReadExReq MSHR miss cycles
system.l3.ReadExReq_mshr_miss_latency::total   9340466500                       # number of ReadExReq MSHR miss cycles
system.l3.ReadSharedReq_mshr_miss_latency::cpu.inst     78119500                       # number of ReadSharedReq MSHR miss cycles
system.l3.ReadSharedReq_mshr_miss_latency::cpu.data     33579000                       # number of ReadSharedReq MSHR miss cycles
system.l3.ReadSharedReq_mshr_miss_latency::total    111698500                       # number of ReadSharedReq MSHR miss cycles
system.l3.demand_mshr_miss_latency::cpu.inst     78119500                       # number of demand (read+write) MSHR miss cycles
system.l3.demand_mshr_miss_latency::cpu.data   9374045500                       # number of demand (read+write) MSHR miss cycles
system.l3.demand_mshr_miss_latency::total   9452165000                       # number of demand (read+write) MSHR miss cycles
system.l3.overall_mshr_miss_latency::cpu.inst     78119500                       # number of overall MSHR miss cycles
system.l3.overall_mshr_miss_latency::cpu.data   9374045500                       # number of overall MSHR miss cycles
system.l3.overall_mshr_miss_latency::total   9452165000                       # number of overall MSHR miss cycles
system.l3.UpgradeReq_mshr_miss_rate::cpu.data     0.499796                       # mshr miss rate for UpgradeReq accesses
system.l3.UpgradeReq_mshr_miss_rate::total     0.499796                       # mshr miss rate for UpgradeReq accesses
system.l3.ReadExReq_mshr_miss_rate::cpu.data            1                       # mshr miss rate for ReadExReq accesses
system.l3.ReadExReq_mshr_miss_rate::total            1                       # mshr miss rate for ReadExReq accesses
system.l3.ReadSharedReq_mshr_miss_rate::cpu.inst            1                       # mshr miss rate for ReadSharedReq accesses
system.l3.ReadSharedReq_mshr_miss_rate::cpu.data     0.000064                       # mshr miss rate for ReadSharedReq accesses
system.l3.ReadSharedReq_mshr_miss_rate::total     0.000272                       # mshr miss rate for ReadSharedReq accesses
system.l3.demand_mshr_miss_rate::cpu.inst            1                       # mshr miss rate for demand accesses
system.l3.demand_mshr_miss_rate::cpu.data     0.010048                       # mshr miss rate for demand accesses
system.l3.demand_mshr_miss_rate::total       0.010252                       # mshr miss rate for demand accesses
system.l3.overall_mshr_miss_rate::cpu.inst            1                       # mshr miss rate for overall accesses
system.l3.overall_mshr_miss_rate::cpu.data     0.010048                       # mshr miss rate for overall accesses
system.l3.overall_mshr_miss_rate::total      0.010252                       # mshr miss rate for overall accesses
system.l3.UpgradeReq_avg_mshr_miss_latency::cpu.data 200605.193530                       # average UpgradeReq mshr miss latency
system.l3.UpgradeReq_avg_mshr_miss_latency::total 200605.193530                       # average UpgradeReq mshr miss latency
system.l3.ReadExReq_avg_mshr_miss_latency::cpu.data 549697.887241                       # average ReadExReq mshr miss latency
system.l3.ReadExReq_avg_mshr_miss_latency::total 549697.887241                       # average ReadExReq mshr miss latency
system.l3.ReadSharedReq_avg_mshr_miss_latency::cpu.inst 222562.678063                       # average ReadSharedReq mshr miss latency
system.l3.ReadSharedReq_avg_mshr_miss_latency::cpu.data 310916.666667                       # average ReadSharedReq mshr miss latency
system.l3.ReadSharedReq_avg_mshr_miss_latency::total 243351.851852                       # average ReadSharedReq mshr miss latency
system.l3.demand_avg_mshr_miss_latency::cpu.inst 222562.678063                       # average overall mshr miss latency
system.l3.demand_avg_mshr_miss_latency::cpu.data 548189.795322                       # average overall mshr miss latency
system.l3.demand_avg_mshr_miss_latency::total 541640.307146                       # average overall mshr miss latency
system.l3.overall_avg_mshr_miss_latency::cpu.inst 222562.678063                       # average overall mshr miss latency
system.l3.overall_avg_mshr_miss_latency::cpu.data 548189.795322                       # average overall mshr miss latency
system.l3.overall_avg_mshr_miss_latency::total 541640.307146                       # average overall mshr miss latency
system.l3.replacements                           1067                       # number of replacements
system.membus.snoop_filter.tot_requests      13912374                       # Total number of requests made to the snoop filter.
system.membus.snoop_filter.hit_single_requests     13894923                       # Number of requests hitting in the snoop filter with a single holder of the requested data.
system.membus.snoop_filter.hit_multi_requests            0                       # Number of requests hitting in the snoop filter with multiple (>1) holders of the requested data.
system.membus.snoop_filter.tot_snoops               0                       # Total number of snoops made to the snoop filter.
system.membus.snoop_filter.hit_single_snoops            0                       # Number of snoops hitting in the snoop filter with a single holder of the requested data.
system.membus.snoop_filter.hit_multi_snoops            0                       # Number of snoops hitting in the snoop filter with multiple (>1) holders of the requested data.
system.membus.pwrStateResidencyTicks::UNDEFINED 5986177194000                       # Cumulative time (in ticks) in various power states
system.membus.trans_dist::ReadResp                459                       # Transaction distribution
system.membus.trans_dist::WritebackDirty          748                       # Transaction distribution
system.membus.trans_dist::WriteClean         13905476                       # Transaction distribution
system.membus.trans_dist::CleanEvict               41                       # Transaction distribution
system.membus.trans_dist::UpgradeReq         13894134                       # Transaction distribution
system.membus.trans_dist::ReadExReq             16992                       # Transaction distribution
system.membus.trans_dist::ReadExResp            16992                       # Transaction distribution
system.membus.trans_dist::ReadSharedReq           459                       # Transaction distribution
system.membus.pkt_count_system.l3.mem_side::system.mem_ctrls.port     27835301                       # Packet count per connected master and slave (bytes)
system.membus.pkt_count_system.l3.mem_side::total     27835301                       # Packet count per connected master and slave (bytes)
system.membus.pkt_count::total               27835301                       # Packet count per connected master and slave (bytes)
system.membus.pkt_size_system.l3.mem_side::system.mem_ctrls.port    891115200                       # Cumulative packet size per connected master and slave (bytes)
system.membus.pkt_size_system.l3.mem_side::total    891115200                       # Cumulative packet size per connected master and slave (bytes)
system.membus.pkt_size::total               891115200                       # Cumulative packet size per connected master and slave (bytes)
system.membus.snoops                                0                       # Total snoops (count)
system.membus.snoopTraffic                          0                       # Total snoop traffic (bytes)
system.membus.snoop_fanout::samples          13911585                       # Request fanout histogram
system.membus.snoop_fanout::mean                    0                       # Request fanout histogram
system.membus.snoop_fanout::stdev                   0                       # Request fanout histogram
system.membus.snoop_fanout::underflows              0      0.00%      0.00% # Request fanout histogram
system.membus.snoop_fanout::0                13911585    100.00%    100.00% # Request fanout histogram
system.membus.snoop_fanout::1                       0      0.00%    100.00% # Request fanout histogram
system.membus.snoop_fanout::overflows               0      0.00%    100.00% # Request fanout histogram
system.membus.snoop_fanout::min_value               0                       # Request fanout histogram
system.membus.snoop_fanout::max_value               0                       # Request fanout histogram
system.membus.snoop_fanout::total            13911585                       # Request fanout histogram
system.membus.reqLayer2.occupancy         95354987500                       # Layer occupancy (ticks)
system.membus.reqLayer2.utilization               1.6                       # Layer utilization (%)
system.membus.respLayer1.occupancy           88723000                       # Layer occupancy (ticks)
system.membus.respLayer1.utilization              0.0                       # Layer utilization (%)
system.tol2bus.snoop_filter.tot_requests     59097612                       # Total number of requests made to the snoop filter.
system.tol2bus.snoop_filter.hit_single_requests     57352554                       # Number of requests hitting in the snoop filter with a single holder of the requested data.
system.tol2bus.snoop_filter.hit_multi_requests            0                       # Number of requests hitting in the snoop filter with multiple (>1) holders of the requested data.
system.tol2bus.snoop_filter.tot_snoops       41725363                       # Total number of snoops made to the snoop filter.
system.tol2bus.snoop_filter.hit_single_snoops     41725363                       # Number of snoops hitting in the snoop filter with a single holder of the requested data.
system.tol2bus.snoop_filter.hit_multi_snoops            0                       # Number of snoops hitting in the snoop filter with multiple (>1) holders of the requested data.
system.tol2bus.pwrStateResidencyTicks::UNDEFINED 5986177194000                       # Cumulative time (in ticks) in various power states
system.tol2bus.trans_dist::ReadResp           1726325                       # Transaction distribution
system.tol2bus.trans_dist::WritebackDirty        22703                       # Transaction distribution
system.tol2bus.trans_dist::WritebackClean           40                       # Transaction distribution
system.tol2bus.trans_dist::WriteClean        97338437                       # Transaction distribution
system.tol2bus.trans_dist::CleanEvict         3419298                       # Transaction distribution
system.tol2bus.trans_dist::UpgradeReq        55608831                       # Transaction distribution
system.tol2bus.trans_dist::UpgradeResp       55608831                       # Transaction distribution
system.tol2bus.trans_dist::ReadExReq            18733                       # Transaction distribution
system.tol2bus.trans_dist::ReadExResp           18733                       # Transaction distribution
system.tol2bus.trans_dist::ReadCleanReq           351                       # Transaction distribution
system.tol2bus.trans_dist::ReadSharedReq      1725974                       # Transaction distribution
system.tol2bus.pkt_count_system.cpu.icache.mem_side::system.l2.cpu_side          742                       # Packet count per connected master and slave (bytes)
system.tol2bus.pkt_count_system.cpu.dcache.mem_side::system.l2.cpu_side    172072757                       # Packet count per connected master and slave (bytes)
system.tol2bus.pkt_count::total             172073499                       # Packet count per connected master and slave (bytes)
system.tol2bus.pkt_size_system.cpu.icache.mem_side::system.l2.cpu_side        25024                       # Cumulative packet size per connected master and slave (bytes)
system.tol2bus.pkt_size_system.cpu.dcache.mem_side::system.l2.cpu_side   3671830784                       # Cumulative packet size per connected master and slave (bytes)
system.tol2bus.pkt_size::total             3671855808                       # Cumulative packet size per connected master and slave (bytes)
system.tol2bus.snoops                        43414757                       # Total snoops (count)
system.tol2bus.snoopTraffic                2670943424                       # Total snoop traffic (bytes)
system.tol2bus.snoop_fanout::samples        100768646                       # Request fanout histogram
system.tol2bus.snoop_fanout::mean            0.414071                       # Request fanout histogram
system.tol2bus.snoop_fanout::stdev           0.492561                       # Request fanout histogram
system.tol2bus.snoop_fanout::underflows             0      0.00%      0.00% # Request fanout histogram
system.tol2bus.snoop_fanout::0               59043283     58.59%     58.59% # Request fanout histogram
system.tol2bus.snoop_fanout::1               41725363     41.41%    100.00% # Request fanout histogram
system.tol2bus.snoop_fanout::2                      0      0.00%    100.00% # Request fanout histogram
system.tol2bus.snoop_fanout::3                      0      0.00%    100.00% # Request fanout histogram
system.tol2bus.snoop_fanout::4                      0      0.00%    100.00% # Request fanout histogram
system.tol2bus.snoop_fanout::overflows              0      0.00%    100.00% # Request fanout histogram
system.tol2bus.snoop_fanout::min_value              0                       # Request fanout histogram
system.tol2bus.snoop_fanout::max_value              1                       # Request fanout histogram
system.tol2bus.snoop_fanout::total          100768646                       # Request fanout histogram
system.tol2bus.reqLayer0.occupancy       112987494000                       # Layer occupancy (ticks)
system.tol2bus.reqLayer0.utilization              1.9                       # Layer utilization (%)
system.tol2bus.respLayer0.occupancy            526500                       # Layer occupancy (ticks)
system.tol2bus.respLayer0.utilization             0.0                       # Layer utilization (%)
system.tol2bus.respLayer1.occupancy       30421476000                       # Layer occupancy (ticks)
system.tol2bus.respLayer1.utilization             0.5                       # Layer utilization (%)
system.tol3bus.snoop_filter.tot_requests     31200005                       # Total number of requests made to the snoop filter.
system.tol3bus.snoop_filter.hit_single_requests     29497879                       # Number of requests hitting in the snoop filter with a single holder of the requested data.
system.tol3bus.snoop_filter.hit_multi_requests            0                       # Number of requests hitting in the snoop filter with multiple (>1) holders of the requested data.
system.tol3bus.snoop_filter.tot_snoops       13905754                       # Total number of snoops made to the snoop filter.
system.tol3bus.snoop_filter.hit_single_snoops     13905754                       # Number of snoops hitting in the snoop filter with a single holder of the requested data.
system.tol3bus.snoop_filter.hit_multi_snoops            0                       # Number of snoops hitting in the snoop filter with multiple (>1) holders of the requested data.
system.tol3bus.pwrStateResidencyTicks::UNDEFINED 5986177194000                       # Cumulative time (in ticks) in various power states
system.tol3bus.trans_dist::ReadResp           1685134                       # Transaction distribution
system.tol3bus.trans_dist::WritebackDirty        17800                       # Transaction distribution
system.tol3bus.trans_dist::WriteClean        41716439                       # Transaction distribution
system.tol3bus.trans_dist::CleanEvict         1681537                       # Transaction distribution
system.tol3bus.trans_dist::UpgradeReq        27799609                       # Transaction distribution
system.tol3bus.trans_dist::UpgradeResp       27799609                       # Transaction distribution
system.tol3bus.trans_dist::ReadExReq            16992                       # Transaction distribution
system.tol3bus.trans_dist::ReadExResp           16992                       # Transaction distribution
system.tol3bus.trans_dist::ReadSharedReq      1685134                       # Transaction distribution
system.tol3bus.pkt_count_system.l2.mem_side::system.l3.cpu_side     88512703                       # Packet count per connected master and slave (bytes)
system.tol3bus.pkt_size_system.l2.mem_side::system.l3.cpu_side   1889929024                       # Cumulative packet size per connected master and slave (bytes)
system.tol3bus.snoops                        13906543                       # Total snoops (count)
system.tol3bus.snoopTraffic                 889998336                       # Total snoop traffic (bytes)
system.tol3bus.snoop_fanout::samples         43408278                       # Request fanout histogram
system.tol3bus.snoop_fanout::mean            0.320348                       # Request fanout histogram
system.tol3bus.snoop_fanout::stdev           0.466610                       # Request fanout histogram
system.tol3bus.snoop_fanout::underflows             0      0.00%      0.00% # Request fanout histogram
system.tol3bus.snoop_fanout::0               29502524     67.97%     67.97% # Request fanout histogram
system.tol3bus.snoop_fanout::1               13905754     32.03%    100.00% # Request fanout histogram
system.tol3bus.snoop_fanout::overflows              0      0.00%    100.00% # Request fanout histogram
system.tol3bus.snoop_fanout::min_value              0                       # Request fanout histogram
system.tol3bus.snoop_fanout::max_value              1                       # Request fanout histogram
system.tol3bus.snoop_fanout::total           43408278                       # Request fanout histogram
system.tol3bus.reqLayer0.occupancy        57333499000                       # Layer occupancy (ticks)
system.tol3bus.reqLayer0.utilization              1.0                       # Layer utilization (%)
system.tol3bus.respLayer0.occupancy       16452993500                       # Layer occupancy (ticks)
system.tol3bus.respLayer0.utilization             0.3                       # Layer utilization (%)

---------- End Simulation Statistics   ----------
